1
    SWAT Jan 26 2015    VER 2012/Rev 636                                                                 0/ 0/   0      0: 0: 0

    General Input/Output section (file.cio):                                        
    1/26/2018 12:00:00 AM ARCGIS-SWAT interface AV                                  
                                                                                    
         Number of years in run:   13
         Area of watershed:     1118.097 km2
1
    SWAT Jan 26 2015    VER 2012/Rev 636                                            

    General Input/Output section (file.cio):                                        
    1/26/2018 12:00:00 AM ARCGIS-SWAT interface AV                                  
                                                                                    
Annual Summary for Watershed in year    1 of simulation

UNIT                                    PERCO    TILE                           WATER     SED     NO3     NO3     NO3     NO3        N       P       P
TIME     PREC    SURQ    LATQ     GWQ    LATE       Q     SW       ET     PET   YIELD   YIELD    SURQ    LATQ    PERC    CROP  ORGANIC SOLUBLE ORGANIC TILENO3
         (mm)    (mm)    (mm)    (mm)    (mm)    (mm)    (mm)    (mm)    (mm)    (mm)    (mm)   ------------------(kg nutrient/ha)-------------------- (kg/ha)
   91    0.00    0.00    0.00    0.00    0.00    0.00    2.80    0.47    5.94    0.00    0.00    0.00    0.00    0.00    0.00     0.00    0.00    0.00    0.00
   92    0.00    0.01    0.00    0.00    0.01    0.00    3.07    0.32    4.89    0.00    0.00    0.00    0.00    0.04    0.01     0.00    0.00    0.00    0.00
   93    1.98    0.05    0.00    0.00    1.93    0.00    3.01    0.23    3.00    0.03    0.02    0.00    0.00    8.53    0.01     0.00    0.00    0.00    0.00
   94    0.00    0.03    0.00    0.00    0.00    0.00    3.05    0.23    3.62    0.02    0.00    0.00    0.00    0.00    0.00     0.00    0.00    0.00    0.00
   95    7.43    0.04    0.00    0.00    7.08    0.00    3.56    0.34    3.95    0.02    0.01    0.00    0.00   27.25    0.00     0.00    0.00    0.00    0.00
   96    0.52    0.02    0.00    0.02    0.52    0.00    3.39    0.27    3.16    0.05    0.00    0.00    0.00    1.82    0.02     0.00    0.00    0.00    0.00
   97    0.00    0.01    0.00    0.03    0.07    0.00    3.03    0.45    6.85    0.04    0.00    0.00    0.00    0.18    0.03     0.00    0.00    0.00    0.00
   98    0.00    0.02    0.00    0.03    0.04    0.00    2.70    0.53    8.47    0.05    0.00    0.01    0.00    0.10    0.04     0.00    0.00    0.00    0.00
   99    0.00    0.00    0.00    0.04    0.01    0.00    2.40    0.43    7.69    0.06    0.00    0.01    0.00    0.01    0.04     0.00    0.00    0.00    0.00
  100    0.00    0.04    0.00    0.05    0.11    0.00    2.54    0.40    7.09    0.08    0.00    0.04    0.00    0.23    0.04     0.00    0.00    0.00    0.00
  101    0.00    0.04    0.00    0.06    0.03    0.00    2.41    0.30    5.46    0.10    0.00    0.03    0.00    0.03    0.01     0.00    0.00    0.00    0.00
  102    0.00    0.02    0.00    0.06    0.01    0.00    2.50    0.31    5.60    0.08    0.00    0.02    0.00    0.00    0.04     0.00    0.00    0.00    0.00
  103    0.00    0.09    0.00    0.07    0.13    0.00    2.88    0.23    4.32    0.12    0.00    0.05    0.00    0.11    0.02     0.00    0.00    0.00    0.00
  104    1.54    0.08    0.00    0.07    1.50    0.00    3.75    0.28    4.27    0.10    0.00    0.03    0.00    2.89    0.02     0.00    0.00    0.00    0.00
  105    1.69    0.10    0.00    0.08    1.63    0.00    3.97    0.26    4.03    0.13    0.00    0.04    0.00    3.11    0.03     0.00    0.00    0.00    0.00
  106    0.00    0.05    0.00    0.08    0.09    0.00    4.41    0.29    4.60    0.13    0.00    0.04    0.00    0.02    0.00     0.00    0.00    0.00    0.00
  107    0.00    0.08    0.00    0.09    0.04    0.00    4.87    0.32    4.52    0.15    0.00    0.05    0.00    0.01    0.00     0.00    0.00    0.00    0.00
  108    0.00    0.06    0.00    0.10    0.04    0.00    4.90    0.30    4.86    0.15    0.00    0.05    0.00    0.01    0.01     0.00    0.00    0.00    0.00
  109    0.00    0.05    0.00    0.10    0.05    0.00    5.05    0.33    5.23    0.16    0.00    0.05    0.00    0.00    0.04     0.00    0.00    0.00    0.00
  110    0.00    0.05    0.00    0.10    0.02    0.00    5.14    0.33    5.81    0.16    0.00    0.05    0.00    0.00    0.05     0.00    0.00    0.00    0.00
  111    4.16    0.03    0.00    0.11    3.59    0.00    5.74    0.30    5.92    0.16    0.00    0.05    0.00    1.88    0.05     0.00    0.00    0.00    0.00
  112    9.06    0.01    0.00    0.12    7.16    0.00    7.23    0.30    3.46    0.16    0.00    0.04    0.00    7.12    0.03     0.00    0.00    0.00    0.00
  113    5.78    0.00    0.00    0.14    4.58    0.00    8.18    0.21    2.05    0.17    0.00    0.03    0.00    7.41    0.02     0.00    0.00    0.00    0.00
  114    3.90    0.00    0.00    0.15    3.29    0.00    8.53    0.23    1.79    0.18    0.00    0.02    0.00    2.61    0.01     0.00    0.00    0.00    0.00
  115   10.44    0.13    0.01    0.18    7.76    0.00   10.68    0.64    3.35    0.23    0.00    0.04    0.00   10.46    0.03     0.00    0.00    0.00    0.00
  116    0.52    0.02    0.00    0.20    0.41    0.00   10.61    0.55    3.84    0.25    0.00    0.07    0.00    0.68    0.05     0.00    0.00    0.00    0.00
  117    0.00    0.01    0.00    0.22    0.01    0.00   10.01    0.67    4.99    0.27    0.00    0.04    0.00    0.00    0.08     0.00    0.00    0.00    0.00
  118    8.64    0.12    0.01    0.25    5.92    0.00   11.60    1.15    6.07    0.35    0.01    0.04    0.00    5.57    0.06     0.00    0.00    0.00    0.00
  119    7.61    0.07    0.00    0.27    4.73    0.00   13.56    0.85    3.79    0.32    0.01    0.03    0.00    7.04    0.02     0.00    0.00    0.00    0.00
  120   32.47    4.60    0.11    0.31   14.29    0.00   24.37    1.96    3.67    2.25    0.98    0.05    0.01   32.31    0.02     0.15    0.00    0.02    0.00
    4   95.74    5.82    0.18    2.94   65.05    0.00   24.37   13.49  142.29    5.98    1.02    0.88    0.04  119.47    0.80     0.16    0.00    0.02    0.00
  121   33.09    4.28    0.27    0.36   15.04    0.00   35.47    1.74    2.53    2.01    0.23    0.04    0.02   17.71    0.03     0.09    0.00    0.01    0.00
  122   10.17    0.99    0.28    0.42    6.92    0.00   38.77    2.12    4.07    1.50    0.02    0.02    0.04   12.71    0.08     0.03    0.00    0.00    0.00
  123    0.00    0.11    0.14    0.44    0.55    0.00   35.98    2.95    7.39    1.39    0.01    0.02    0.01    2.55    0.14     0.01    0.00    0.00    0.00
  124    0.19    0.04    0.08    0.48    0.13    0.00   34.38    1.75    5.54    1.06    0.04    0.02    0.01    0.20    0.15     0.01    0.00    0.00    0.00
  125    4.31    0.25    0.06    0.53    2.80    0.00   37.08    1.39    3.12    1.00    0.00    0.01    0.01    5.31    0.09     0.00    0.00    0.00    0.00
  126    2.91    0.18    0.04    0.57    0.16    0.00   38.29    1.47    3.54    1.00    0.00    0.01    0.01    0.17    0.11     0.00    0.00    0.00    0.00
  127    0.00    0.04    0.03    0.60    0.57    0.00   36.41    2.06    4.97    1.11    0.00    0.01    0.01    1.07    0.18     0.00    0.00    0.00    0.00
  128    0.00    0.28    0.02    0.64    2.43    0.00   34.51    2.39    6.89    1.13    0.00    0.01    0.00    1.46    0.20     0.00    0.00    0.00    0.00
  129    0.00    0.11    0.02    0.67    0.56    0.00   32.49    2.23    7.78    1.11    0.00    0.01    0.00    0.45    0.20     0.00    0.00    0.00    0.00
  130    0.00    0.04    0.02    0.70    0.04    0.00   30.56    2.04    8.14    1.08    0.00    0.01    0.00    0.00    0.18     0.00    0.00    0.00    0.00
  131    1.61    0.02    0.01    0.72    0.42    0.00   30.97    0.92    3.62    0.97    0.00    0.01    0.00    0.73    0.16     0.00    0.00    0.00    0.00
  132    1.33    0.00    0.01    0.75    0.63    0.00   31.24    1.16    4.15    0.98    0.00    0.01    0.00    0.19    0.11     0.00    0.00    0.00    0.00
  133    0.00    0.07    0.01    0.77    0.02    0.00   29.46    1.89    7.57    1.01    0.00    0.00    0.00    0.00    0.16     0.00    0.00    0.00    0.00
  134    0.00    0.02    0.01    0.79    0.11    0.00   27.62    1.97    8.77    1.01    0.00    0.00    0.00    0.00    0.21     0.00    0.00    0.00    0.00
  135    0.00    0.00    0.01    0.80    0.01    0.00   26.11    1.64    7.75    1.00    0.00    0.00    0.00    0.00    0.22     0.00    0.00    0.00    0.00
  136    0.00    0.04    0.01    0.82    0.20    0.00   24.97    1.43    7.38    1.00    0.00    0.01    0.00    0.87    0.24     0.00    0.00    0.00    0.00
  137    0.31    0.02    0.01    0.83    0.21    0.00   24.37    0.91    4.53    0.98    0.00    0.01    0.00    0.12    0.17     0.00    0.00    0.00    0.00
  138    0.00    0.04    0.01    0.84    0.29    0.00   23.45    1.33    7.01    1.01    0.00    0.00    0.00    0.63    0.19     0.00    0.00    0.00    0.00
  139    0.00    0.03    0.00    0.85    0.00    0.00   21.97    1.59    9.39    1.00    0.00    0.00    0.00    0.00    0.17     0.00    0.00    0.00    0.00
  140    0.42    0.02    0.01    0.85    0.37    0.00   21.33    0.98    6.07    0.98    0.00    0.00    0.00    0.46    0.15     0.00    0.00    0.00    0.00
  141    0.00    0.14    0.01    0.86    0.47    0.00   21.07    1.38    7.47    1.01    0.00    0.01    0.00    1.12    0.18     0.00    0.00    0.00    0.00
  142    0.00    0.05    0.01    0.86    0.09    0.00   19.89    1.43    7.58    1.01    0.00    0.01    0.00    0.05    0.25     0.00    0.00    0.00    0.00
  143    0.00    0.06    0.01    0.87    0.50    0.00   18.79    1.33    7.32    1.00    0.00    0.00    0.00    0.82    0.22     0.00    0.00    0.00    0.00
  144    0.00    0.08    0.01    0.87    0.34    0.00   18.11    1.25    6.78    1.02    0.00    0.00    0.00    0.25    0.31     0.00    0.00    0.00    0.00
  145    4.60    0.04    0.01    0.87    0.55    0.00   21.35    0.83    3.82    1.00    0.01    0.00    0.00    0.87    0.28     0.00    0.00    0.00    0.00
  146    2.39    0.00    0.00    0.87    0.17    0.00   22.51    1.12    4.63    0.97    0.00    0.00    0.00    0.15    0.22     0.00    0.00    0.00    0.00
  147    0.00    0.01    0.00    0.87    0.14    0.00   20.95    1.67    7.15    0.96    0.00    0.00    0.00    0.07    0.32     0.00    0.00    0.00    0.00
  148    0.00    0.04    0.00    0.87    0.09    0.00   19.82    1.62    6.83    0.96    0.00    0.00    0.00    0.00    0.43     0.00    0.00    0.00    0.00
  149    0.82    0.03    0.00    0.86    0.44    0.00   18.98    1.45    6.54    0.96    0.00    0.00    0.00    0.62    0.49     0.00    0.00    0.00    0.00
  150    1.86    0.15    0.01    0.86    0.63    0.00   20.73    1.35    4.32    0.95    0.00    0.00    0.00    0.60    0.42     0.00    0.00    0.00    0.00
  151    0.07    0.08    0.00    0.85    0.12    0.00   19.26    1.63    7.23    0.96    0.00    0.00    0.00    0.04    0.46     0.00    0.00    0.00    0.00
    5   64.06    7.30    1.08   22.94   35.02    0.00   19.26   49.04  189.86   33.15    0.32    0.25    0.13   49.20    6.71     0.16    0.02    0.02    0.00
  152    0.00    0.01    0.00    0.85    0.00    0.00   17.56    1.95    8.10    0.94    0.00    0.00    0.00    0.00    0.48     0.00    0.00    0.00    0.00
  153    0.19    0.06    0.00    0.84    0.46    0.00   15.97    2.04    9.74    0.94    0.01    0.00    0.00    0.65    0.65     0.00    0.00    0.00    0.00
  154    0.00    0.04    0.01    0.84    0.01    0.00   14.68    2.00    9.95    0.95    0.00    0.01    0.00    0.00    0.57     0.00    0.00    0.00    0.00
  155    0.00    0.24    0.01    0.83    0.04    0.00   14.60    2.08   10.92    1.01    0.00    0.00    0.00    0.10    0.66     0.00    0.00    0.00    0.00
  156    0.00    0.06    0.01    0.82    0.13    0.00   13.35    1.85   10.01    0.95    0.00    0.00    0.00    0.01    0.68     0.00    0.00    0.00    0.00
  157    0.00    0.13    0.01    0.81    0.03    0.00   13.16    1.73    8.51    0.97    0.00    0.00    0.00    0.03    0.81     0.00    0.00    0.00    0.00
  158    0.00    0.13    0.01    0.80    0.00    0.00   12.74    1.67    7.43    0.96    0.00    0.00    0.00    0.00    0.75     0.00    0.00    0.00    0.00
  159    0.00    0.12    0.01    0.79    0.14    0.00   11.54    1.75   10.44    0.93    0.00    0.00    0.00    0.00    0.54     0.00    0.00    0.00    0.00
  160    0.00    0.12    0.01    0.78    0.00    0.00   11.48    1.95    9.98    0.92    0.00    0.00    0.00    0.00    0.71     0.00    0.00    0.00    0.00
  161    0.00    0.10    0.01    0.77    0.00    0.00   10.26    1.47    6.96    0.93    0.00    0.00    0.00    0.00    0.70     0.00    0.00    0.00    0.00
  162    0.00    0.24    0.01    0.76    0.13    0.00   10.94    1.45    6.93    0.93    0.00    0.00    0.00    0.00    0.65     0.00    0.00    0.00    0.00
  163   12.38    0.06    0.01    0.75    1.41    0.00   19.82    2.44    5.02    0.89    0.00    0.00    0.00    1.18    0.67     0.00    0.00    0.00    0.00
  164    5.92    0.03    0.02    0.75    0.38    0.00   22.99    2.39    4.81    0.90    0.00    0.00    0.00    0.22    0.86     0.00    0.00    0.00    0.00
  165    0.82    0.01    0.01    0.74    0.62    0.00   20.59    2.77    7.82    0.84    0.00    0.00    0.00    0.55    0.89     0.00    0.00    0.00    0.00
  166    0.18    0.00    0.01    0.73    0.10    0.00   18.45    2.29    7.11    0.82    0.00    0.00    0.00    0.06    0.95     0.00    0.00    0.00    0.00
  167    0.00    0.03    0.01    0.72    0.06    0.00   17.05    1.71    5.44    0.80    0.00    0.00    0.00    0.00    0.73     0.00    0.00    0.00    0.00
  168    0.19    0.06    0.01    0.71    0.25    0.00   15.30    2.35    7.26    0.79    0.00    0.00    0.00    0.14    0.44     0.00    0.00    0.00    0.00
  169    0.26    0.02    0.00    0.70    0.19    0.00   13.45    2.12    5.28    0.78    0.00    0.00    0.00    0.13    0.87     0.00    0.00    0.00    0.00
  170    0.00    0.02    0.01    0.69    0.06    0.00   11.73    1.96    7.20    0.77    0.00    0.00    0.00    0.00    0.70     0.00    0.00    0.00    0.00
  171    0.00    0.15    0.01    0.68    0.05    0.00   11.75    1.49    6.48    0.80    0.00    0.00    0.00    0.00    0.46     0.00    0.00    0.00    0.00
  172    0.00    0.07    0.01    0.67    0.07    0.00   11.08    1.68    7.65    0.82    0.00    0.00    0.00    0.00    0.51     0.00    0.00    0.00    0.00
  173    0.00    0.07    0.00    0.66    0.00    0.00    9.73    1.60    7.78    0.80    0.00    0.00    0.00    0.00    0.45     0.00    0.00    0.00    0.00
  174    0.82    0.06    0.01    0.65    0.65    0.00    9.67    1.69    7.77    0.76    0.00    0.00    0.00    0.44    0.48     0.00    0.00    0.00    0.00
  175    0.84    0.13    0.01    0.64    0.51    0.00    9.52    1.12    6.14    0.74    0.00    0.00    0.00    0.28    0.35     0.00    0.00    0.00    0.00
  176    0.00    0.16    0.01    0.63    0.00    0.00    9.61    1.70    7.91    0.75    0.00    0.00    0.00    0.00    0.38     0.00    0.00    0.00    0.00
  177    0.03    0.16    0.01    0.62    0.05    0.00    9.73    1.51    6.76    0.75    0.00    0.00    0.00    0.02    0.37     0.00    0.00    0.00    0.00
  178    0.00    0.10    0.01    0.61    0.00    0.00    8.30    1.75    8.99    0.74    0.00    0.00    0.00    0.00    0.33     0.00    0.00    0.00    0.00
  179    0.00    0.18    0.01    0.60    0.00    0.00    8.52    1.60    8.78    0.75    0.00    0.00    0.00    0.00    0.41     0.00    0.00    0.00    0.00
  180    0.00    0.17    0.01    0.58    0.03    0.00    9.10    1.69    8.41    0.78    0.00    0.00    0.00    0.00    0.42     0.00    0.00    0.00    0.00
  181    0.00    0.15    0.01    0.57    0.00    0.00    8.41    1.47    6.95    0.80    0.00    0.00    0.00    0.00    0.31     0.00    0.00    0.00    0.00
    6   21.62    2.89    0.22   21.59    5.39    0.00    8.41   55.28  232.56   25.47    0.01    0.03    0.01    3.79   17.76     0.00    0.02    0.00    0.00
  182    0.00    0.04    0.01    0.56    0.03    0.00    7.07    1.67    9.62    0.69    0.00    0.00    0.00    0.00    0.27     0.00    0.00    0.00    0.00
  183    0.00    0.15    0.01    0.55    0.00    0.00    7.20    1.43    8.02    0.70    0.00    0.00    0.00    0.00    0.23     0.00    0.00    0.00    0.00
  184    0.00    0.07    0.01    0.52    0.00    0.00    6.11    1.85   10.96    0.66    0.00    0.00    0.00    0.00    0.19     0.00    0.00    0.00    0.00
  185    0.00    0.09    0.01    0.50    0.02    0.00    5.26    1.69   11.15    0.65    0.00    0.00    0.00    0.00    0.19     0.00    0.00    0.00    0.00
  186    0.00    0.13    0.01    0.48    0.00    0.00    5.86    1.71   11.04    0.62    0.00    0.00    0.00    0.00    0.21     0.00    0.00    0.00    0.00
  187    0.07    0.24    0.01    0.46    0.06    0.00    6.18    1.43    8.63    0.65    0.00    0.00    0.00    0.01    0.24     0.00    0.00    0.00    0.00
  188    0.00    0.23    0.01    0.41    0.02    0.00    6.79    1.52    9.29    0.64    0.00    0.00    0.00    0.00    0.26     0.00    0.00    0.00    0.00
  189    1.77    0.24    0.01    0.39    1.11    0.00    7.04    2.04    9.72    0.56    0.00    0.00    0.00    0.50    0.26     0.00    0.00    0.00    0.00
  190    3.18    0.10    0.01    0.38    0.95    0.00    9.35    0.68    3.15    0.53    0.00    0.00    0.00    0.34    0.22     0.00    0.00    0.00    0.00
  191    0.86    0.03    0.01    0.37    0.41    0.00    9.04    1.00    5.06    0.52    0.00    0.00    0.00    0.20    0.25     0.00    0.00    0.00    0.00
  192    0.00    0.02    0.01    0.36    0.01    0.00    7.77    1.59    7.30    0.48    0.00    0.00    0.00    0.00    0.32     0.00    0.00    0.00    0.00
  193    0.00    0.04    0.01    0.36    0.02    0.00    6.58    1.55    7.22    0.47    0.00    0.00    0.00    0.00    0.30     0.00    0.00    0.00    0.00
  194    0.00    0.03    0.01    0.35    0.02    0.00    5.60    1.37    7.13    0.45    0.00    0.00    0.00    0.00    0.34     0.00    0.00    0.00    0.00
  195    0.00    0.08    0.01    0.34    0.00    0.00    5.57    1.50    8.33    0.48    0.00    0.00    0.00    0.00    0.29     0.00    0.00    0.00    0.00
  196    0.32    0.18    0.01    0.32    0.32    0.00    5.23    1.33    8.74    0.50    0.01    0.00    0.00    0.07    0.23     0.00    0.00    0.00    0.00
  197   37.42    5.73    0.16    0.33    9.79    0.00   24.53    4.04    5.72    2.72    0.55    0.08    0.01    2.98    0.15     0.08    0.01    0.01    0.00
  198   23.70    1.50    0.14    0.35    6.84    0.00   38.40    1.42    1.80    1.36    0.03    0.03    0.00    1.65    0.14     0.02    0.00    0.00    0.00
  199    0.83    0.00    0.07    0.36    0.08    0.00   36.07    3.11    4.75    0.87    0.00    0.03    0.00    0.01    0.24     0.01    0.00    0.00    0.00
  200    0.79    0.00    0.04    0.37    0.15    0.00   34.84    1.93    3.66    0.74    0.00    0.02    0.00    0.02    0.25     0.00    0.00    0.00    0.00
  201    0.00    0.00    0.03    0.37    0.01    0.00   29.69    5.24    9.87    0.82    0.00    0.02    0.00    0.00    0.41     0.00    0.00    0.00    0.00
  202    0.00    0.14    0.02    0.38    1.01    0.00   25.46    4.58   10.31    0.80    0.00    0.02    0.00    0.00    0.47     0.00    0.00    0.00    0.00
  203    2.44    0.01    0.02    0.38    0.43    0.00   26.52    1.08    2.88    0.63    0.00    0.02    0.00    0.14    0.36     0.00    0.00    0.00    0.00
  204    0.61    0.00    0.01    0.39    0.21    0.00   25.32    1.66    4.69    0.60    0.00    0.01    0.00    0.03    0.28     0.00    0.00    0.00    0.00
  205    0.00    0.00    0.01    0.39    0.00    0.00   21.22    4.20   10.34    0.66    0.00    0.01    0.00    0.00    0.30     0.00    0.00    0.00    0.00
  206    0.00    0.00    0.01    0.40    0.01    0.00   17.46    3.88   10.85    0.63    0.00    0.01    0.00    0.00    0.26     0.00    0.00    0.00    0.00
  207    0.00    0.02    0.01    0.40    0.00    0.00   14.06    3.70   11.56    0.62    0.00    0.01    0.00    0.00    0.26     0.00    0.00    0.00    0.00
  208    1.48    0.01    0.01    0.40    0.37    0.00   14.26    1.05    2.93    0.57    0.00    0.01    0.00    0.09    0.18     0.00    0.00    0.00    0.00
  209    0.00    0.03    0.00    0.41    0.00    0.00   12.10    2.81    9.29    0.60    0.00    0.01    0.00    0.00    0.16     0.00    0.00    0.00    0.00
  210    0.00    0.12    0.00    0.41    0.00    0.00   10.85    2.35    8.58    0.61    0.00    0.01    0.00    0.00    0.16     0.00    0.00    0.00    0.00
  211    0.00    0.09    0.01    0.41    0.00    0.00    8.96    2.56   11.54    0.58    0.00    0.01    0.00    0.00    0.14     0.00    0.00    0.00    0.00
  212    5.71    0.06    0.00    0.41    0.57    0.00   14.01    0.73    1.80    0.55    0.00    0.01    0.00    0.11    0.11     0.00    0.00    0.00    0.00
    7   79.17    9.39    0.67   12.50   22.44    0.00   14.01   66.72  235.95   21.95    0.61    0.30    0.01    6.15    7.64     0.11    0.05    0.01    0.00
  213    6.79    0.02    0.00    0.41    0.79    0.00   19.05    0.86    1.71    0.55    0.00    0.00    0.00    0.14    0.09     0.00    0.00    0.00    0.00
  214   25.27    4.85    0.12    0.42    4.48    0.00   32.44    1.94    2.39    1.96    0.14    0.01    0.00    0.32    0.10     0.02    0.00    0.00    0.00
  215    0.29    0.00    0.06    0.42    0.10    0.00   30.89    1.79    3.20    0.95    0.00    0.00    0.00    0.04    0.14     0.00    0.00    0.00    0.00
  216    0.28    0.01    0.03    0.42    0.24    0.00   27.55    3.54    6.17    0.92    0.00    0.00    0.00    0.02    0.28     0.00    0.00    0.00    0.00
  217    3.51    0.10    0.02    0.42    1.42    0.00   29.08    1.23    1.91    0.74    0.00    0.00    0.00    0.13    0.19     0.00    0.00    0.00    0.00
  218    2.15    0.00    0.01    0.43    0.25    0.00   28.20    2.86    5.13    0.70    0.00    0.00    0.00    0.04    0.24     0.00    0.00    0.00    0.00
  219    1.14    0.00    0.01    0.43    0.44    0.00   26.55    2.42    4.43    0.74    0.00    0.00    0.00    0.05    0.20     0.00    0.00    0.00    0.00
  220    0.03    0.01    0.01    0.43    0.08    0.00   23.63    3.04    6.05    0.71    0.00    0.00    0.00    0.00    0.59     0.00    0.00    0.00    0.00
  221    0.03    0.00    0.00    0.44    0.02    0.00   20.92    2.82    5.73    0.68    0.00    0.00    0.00    0.00    0.48     0.00    0.00    0.00    0.00
  222    0.10    0.00    0.00    0.44    0.05    0.00   18.38    2.70    6.21    0.66    0.00    0.00    0.00    0.00    0.34     0.00    0.00    0.00    0.00
  223    0.00    0.01    0.00    0.44    0.00    0.00   15.70    2.88    6.71    0.64    0.00    0.00    0.00    0.00    0.29     0.00    0.00    0.00    0.00
  224    0.00    0.11    0.00    0.44    0.00    0.00   14.21    2.58    6.29    0.65    0.00    0.00    0.00    0.00    0.32     0.00    0.00    0.00    0.00
  225    0.00    0.02    0.00    0.43    0.00    0.00   12.47    2.05    6.54    0.62    0.00    0.00    0.00    0.00    0.32     0.00    0.00    0.00    0.00
  226    1.14    0.03    0.01    0.43    0.16    0.00   11.70    2.03    5.99    0.59    0.00    0.00    0.00    0.05    0.38     0.00    0.00    0.00    0.00
  227    0.45    0.01    0.00    0.43    0.26    0.00   10.51    1.53    5.23    0.58    0.00    0.00    0.00    0.02    0.21     0.00    0.00    0.00    0.00
  228    0.00    0.02    0.00    0.43    0.00    0.00    9.55    1.79    6.19    0.58    0.00    0.00    0.00    0.00    0.28     0.00    0.00    0.00    0.00
  229    0.19    0.16    0.00    0.42    0.15    0.00    9.41    1.73    7.37    0.59    0.00    0.00    0.00    0.04    0.25     0.00    0.00    0.00    0.00
  230    0.00    0.24    0.01    0.42    0.00    0.00    9.84    1.39    5.15    0.65    0.00    0.00    0.00    0.00    0.18     0.00    0.00    0.00    0.00
  231    0.07    0.03    0.01    0.41    0.05    0.00    9.11    1.15    5.51    0.59    0.00    0.00    0.00    0.00    0.14     0.00    0.00    0.00    0.00
  232    1.08    0.06    0.01    0.41    0.32    0.00    8.93    1.33    5.19    0.56    0.00    0.00    0.00    0.07    0.08     0.00    0.00    0.00    0.00
  233   11.57    0.12    0.02    0.41    0.78    0.00   17.35    2.37    3.99    0.60    0.01    0.00    0.00    0.10    0.09     0.00    0.00    0.00    0.00
  234    1.82    0.01    0.01    0.41    0.65    0.00   16.98    1.60    3.04    0.55    0.00    0.00    0.00    0.07    0.13     0.00    0.00    0.00    0.00
  235    0.00    0.00    0.01    0.40    0.02    0.00   14.87    2.20    5.79    0.51    0.00    0.00    0.00    0.00    0.08     0.00    0.00    0.00    0.00
  236    0.00    0.01    0.01    0.40    0.04    0.00   13.69    1.25    5.22    0.50    0.00    0.00    0.00    0.00    0.05     0.00    0.00    0.00    0.00
  237    0.00    0.00    0.00    0.39    0.00    0.00   11.82    1.97    5.83    0.48    0.00    0.00    0.00    0.00    0.11     0.00    0.00    0.00    0.00
  238    0.00    0.01    0.00    0.38    0.00    0.00   10.35    1.64    6.44    0.46    0.00    0.00    0.00    0.00    0.17     0.00    0.00    0.00    0.00
  239    0.00    0.06    0.00    0.37    0.00    0.00    9.70    1.42    7.07    0.46    0.00    0.00    0.00    0.00    0.16     0.00    0.00    0.00    0.00
  240    0.00    0.03    0.00    0.37    0.00    0.00    8.92    1.15    5.90    0.45    0.00    0.00    0.00    0.00    0.06     0.00    0.00    0.00    0.00
  241    0.32    0.06    0.00    0.36    0.24    0.00    8.89    0.80    3.67    0.46    0.00    0.00    0.00    0.03    0.01     0.00    0.00    0.00    0.00
  242    0.02    0.03    0.00    0.36    0.02    0.00    8.49    0.84    5.35    0.46    0.00    0.00    0.00    0.00    0.01     0.00    0.00    0.00    0.00
  243    0.19    0.03    0.00    0.34    0.17    0.00    7.78    0.84    7.01    0.44    0.00    0.00    0.00    0.04    0.01     0.00    0.00    0.00    0.00
    8   56.45    6.06    0.39   12.72   10.73    0.00    7.78   57.76  162.42   20.02    0.16    0.04    0.00    1.17    5.98     0.03    0.02    0.00    0.00
  244    0.00    0.00    0.00    0.34    0.00    0.00    7.19    0.69    5.93    0.41    0.00    0.00    0.00    0.00    0.01     0.00    0.00    0.00    0.00
  245    0.00    0.02    0.00    0.33    0.00    0.00    6.92    0.65    6.05    0.40    0.00    0.00    0.00    0.00    0.00     0.00    0.00    0.00    0.00
  246    0.00    0.02    0.00    0.32    0.00    0.00    6.44    0.68    6.53    0.39    0.00    0.00    0.00    0.00    0.00     0.00    0.00    0.00    0.00
  247    0.00    0.02    0.00    0.31    0.00    0.00    6.14    0.59    5.53    0.38    0.00    0.00    0.00    0.00    0.00     0.00    0.00    0.00    0.00
  248    0.00    0.02    0.00    0.31    0.00    0.00    5.80    0.60    5.20    0.37    0.00    0.00    0.00    0.00    0.00     0.00    0.00    0.00    0.00
  249    0.00    0.06    0.00    0.30    0.00    0.00    6.19    0.60    5.26    0.36    0.00    0.00    0.00    0.00    0.00     0.00    0.00    0.00    0.00
  250    0.00    0.11    0.00    0.28    0.00    0.00    6.23    0.67    6.57    0.36    0.00    0.00    0.00    0.00    0.00     0.00    0.00    0.00    0.00
  251    0.00    0.03    0.00    0.27    0.00    0.00    6.15    0.52    5.77    0.36    0.00    0.00    0.00    0.00    0.00     0.00    0.00    0.00    0.00
  252    0.00    0.09    0.00    0.27    0.00    0.00    6.50    0.55    5.00    0.36    0.00    0.00    0.00    0.00    0.00     0.00    0.00    0.00    0.00
  253    0.00    0.05    0.00    0.26    0.00    0.00    6.42    0.56    4.84    0.36    0.00    0.00    0.00    0.00    0.00     0.00    0.00    0.00    0.00
  254    0.00    0.03    0.00    0.25    0.01    0.00    6.19    0.46    4.71    0.35    0.00    0.00    0.00    0.00    0.00     0.00    0.00    0.00    0.00
  255    0.00    0.05    0.00    0.24    0.00    0.00    6.51    0.24    2.87    0.32    0.00    0.00    0.00    0.00    0.00     0.00    0.00    0.00    0.00
  256    0.00    0.03    0.00    0.24    0.00    0.00    6.30    0.42    4.14    0.31    0.00    0.00    0.00    0.00    0.00     0.00    0.00    0.00    0.00
  257    0.00    0.02    0.00    0.23    0.07    0.00    6.13    0.37    4.44    0.30    0.00    0.00    0.00    0.00    0.00     0.00    0.00    0.00    0.00
  258    0.63    0.02    0.00    0.21    0.44    0.00    6.44    0.14    1.56    0.27    0.00    0.00    0.00    0.04    0.00     0.00    0.00    0.00    0.00
  259    1.87    0.01    0.00    0.20    0.99    0.00    7.05    0.33    2.63    0.27    0.00    0.00    0.00    0.17    0.00     0.00    0.00    0.00    0.00
  260    0.00    0.00    0.00    0.20    0.00    0.00    6.61    0.48    2.61    0.25    0.00    0.00    0.00    0.00    0.00     0.00    0.00    0.00    0.00
  261    0.00    0.02    0.00    0.19    0.09    0.00    6.21    0.54    4.03    0.24    0.00    0.00    0.00    0.00    0.00     0.00    0.00    0.00    0.00
  262    0.00    0.01    0.00    0.19    0.05    0.00    5.96    0.29    2.56    0.24    0.00    0.00    0.00    0.00    0.00     0.00    0.00    0.00    0.00
  263    0.18    0.00    0.00    0.19    0.18    0.00    5.88    0.12    1.08    0.23    0.00    0.00    0.00    0.02    0.00     0.00    0.00    0.00    0.00
  264    0.00    0.00    0.00    0.18    0.01    0.00    5.60    0.36    3.14    0.22    0.00    0.00    0.00    0.00    0.00     0.00    0.00    0.00    0.00
  265    0.00    0.02    0.00    0.17    0.04    0.00    5.43    0.40    3.64    0.21    0.00    0.00    0.00    0.00    0.00     0.00    0.00    0.00    0.00
  266    0.19    0.08    0.00    0.16    0.21    0.00    5.95    0.41    4.44    0.22    0.00    0.00    0.00    0.03    0.01     0.00    0.00    0.00    0.00
  267    0.00    0.06    0.00    0.15    0.00    0.00    6.08    0.40    4.32    0.23    0.00    0.00    0.00    0.00    0.01     0.00    0.00    0.00    0.00
  268    0.00    0.03    0.00    0.15    0.00    0.00    5.85    0.42    4.62    0.22    0.00    0.00    0.00    0.00    0.01     0.00    0.00    0.00    0.00
  269    0.00    0.01    0.00    0.14    0.00    0.00    5.68    0.36    4.34    0.19    0.00    0.00    0.00    0.00    0.01     0.00    0.00    0.00    0.00
  270    0.00    0.01    0.00    0.14    0.00    0.00    5.55    0.18    2.86    0.19    0.00    0.00    0.00    0.00    0.00     0.00    0.00    0.00    0.00
  271    0.63    0.02    0.00    0.14    0.48    0.00    5.74    0.13    1.66    0.18    0.00    0.00    0.00    0.04    0.00     0.00    0.00    0.00    0.00
  272    0.59    0.00    0.00    0.13    0.53    0.00    5.65    0.20    1.89    0.18    0.00    0.00    0.00    0.06    0.00     0.00    0.00    0.00    0.00
  273    0.19    0.01    0.00    0.13    0.19    0.00    5.54    0.24    3.43    0.17    0.00    0.00    0.00    0.02    0.03     0.00    0.00    0.00    0.00
    9    4.28    0.85    0.08    6.61    3.28    0.00    5.54   12.59  121.69    8.56    0.00    0.00    0.00    0.38    0.14     0.00    0.00    0.00    0.00
  274    0.00    0.02    0.00    0.13    0.00    0.00    5.56    0.21    3.48    0.17    0.00    0.00    0.00    0.00    0.02     0.00    0.00    0.00    0.00
  275    0.00    0.01    0.00    0.13    0.02    0.00    5.50    0.21    3.63    0.17    0.00    0.00    0.00    0.00    0.03     0.00    0.00    0.00    0.00
  276    0.00    0.00    0.00    0.13    0.01    0.00    5.43    0.12    2.05    0.17    0.00    0.00    0.00    0.00    0.02     0.00    0.00    0.00    0.00
  277    0.00    0.00    0.00    0.13    0.01    0.00    5.30    0.19    3.02    0.16    0.00    0.00    0.00    0.00    0.03     0.00    0.00    0.00    0.00
  278    0.00    0.01    0.00    0.12    0.05    0.00    5.16    0.23    3.70    0.16    0.00    0.00    0.00    0.00    0.04     0.00    0.00    0.00    0.00
  279    0.00    0.00    0.00    0.11    0.01    0.00    4.99    0.22    3.91    0.15    0.00    0.00    0.00    0.00    0.03     0.00    0.00    0.00    0.00
  280    0.76    0.00    0.00    0.10    0.69    0.00    4.99    0.13    2.33    0.14    0.00    0.00    0.00    0.06    0.03     0.00    0.00    0.00    0.00
  281    0.44    0.01    0.00    0.11    0.47    0.00    4.93    0.16    2.18    0.14    0.00    0.00    0.00    0.04    0.06     0.00    0.00    0.00    0.00
  282    0.00    0.00    0.00    0.11    0.01    0.00    4.75    0.23    3.26    0.14    0.00    0.00    0.00    0.00    0.08     0.00    0.00    0.00    0.00
  283    0.19    0.00    0.00    0.11    0.20    0.00    4.60    0.21    3.39    0.14    0.00    0.00    0.00    0.02    0.09     0.00    0.00    0.00    0.00
  284    0.00    0.00    0.00    0.10    0.01    0.00    4.42    0.23    3.19    0.14    0.00    0.00    0.00    0.00    0.10     0.00    0.00    0.00    0.00
  285    0.00    0.00    0.00    0.10    0.00    0.00    4.25    0.23    3.10    0.13    0.00    0.00    0.00    0.00    0.11     0.00    0.00    0.00    0.00
  286    0.00    0.01    0.00    0.10    0.01    0.00    4.15    0.22    3.37    0.13    0.00    0.00    0.00    0.00    0.13     0.00    0.00    0.00    0.00
  287    0.00    0.01    0.00    0.10    0.00    0.00    4.02    0.23    2.94    0.13    0.00    0.00    0.00    0.00    0.14     0.00    0.00    0.00    0.00
  288    0.00    0.02    0.00    0.10    0.00    0.00    4.04    0.23    3.49    0.13    0.00    0.00    0.00    0.00    0.14     0.00    0.00    0.00    0.00
  289    0.28    0.03    0.00    0.10    0.27    0.00    4.21    0.04    0.78    0.14    0.00    0.00    0.00    0.02    0.02     0.00    0.00    0.00    0.00
  290    1.28    0.01    0.00    0.10    1.00    0.00    4.44    0.10    0.96    0.13    0.00    0.00    0.00    0.08    0.00     0.00    0.00    0.00    0.00
  291    0.00    0.01    0.00    0.10    0.03    0.00    4.30    0.19    1.92    0.13    0.00    0.00    0.00    0.00    0.04     0.00    0.00    0.00    0.00
  292    1.63    0.00    0.00    0.10    1.21    0.00    4.59    0.17    1.43    0.13    0.00    0.00    0.00    0.10    0.13     0.00    0.00    0.00    0.00
  293    0.00    0.01    0.00    0.10    0.04    0.00    4.45    0.22    1.80    0.14    0.00    0.00    0.00    0.00    0.14     0.00    0.00    0.00    0.00
  294    0.00    0.00    0.00    0.10    0.01    0.00    4.25    0.25    2.70    0.13    0.00    0.00    0.00    0.00    0.15     0.00    0.00    0.00    0.00
  295    0.00    0.05    0.00    0.10    0.01    0.00    4.70    0.26    2.52    0.14    0.00    0.00    0.00    0.00    0.18     0.00    0.00    0.00    0.00
  296    0.00    0.04    0.00    0.10    0.05    0.00    4.55    0.26    2.72    0.15    0.00    0.00    0.00    0.00    0.18     0.00    0.00    0.00    0.00
  297    0.00    0.01    0.00    0.10    0.01    0.00    4.45    0.22    2.45    0.14    0.00    0.00    0.00    0.00    0.18     0.00    0.00    0.00    0.00
  298    0.19    0.05    0.00    0.10    0.20    0.00    4.76    0.19    2.46    0.15    0.00    0.00    0.00    0.01    0.19     0.00    0.00    0.00    0.00
  299    0.00    0.02    0.00    0.10    0.00    0.00    4.89    0.20    2.74    0.15    0.00    0.00    0.00    0.00    0.21     0.00    0.00    0.00    0.00
  300    0.00    0.03    0.00    0.09    0.00    0.00    4.96    0.24    3.36    0.14    0.00    0.00    0.00    0.00    0.18     0.00    0.00    0.00    0.00
  301    0.00    0.04    0.00    0.08    0.00    0.00    5.00    0.35    5.59    0.14    0.00    0.00    0.00    0.00    0.18     0.00    0.00    0.00    0.00
  302    0.16    0.04    0.00    0.08    0.16    0.00    5.14    0.14    2.07    0.13    0.00    0.00    0.00    0.01    0.14     0.00    0.00    0.00    0.00
  303    0.11    0.00    0.00    0.08    0.11    0.00    5.02    0.17    2.56    0.12    0.00    0.00    0.00    0.01    0.08     0.00    0.00    0.00    0.00
  304    0.00    0.01    0.00    0.08    0.00    0.00    4.90    0.22    3.32    0.12    0.00    0.00    0.00    0.00    0.07     0.00    0.00    0.00    0.00
   10    5.04    0.44    0.04    3.18    4.60    0.00    4.90    6.24   86.42    4.39    0.00    0.00    0.00    0.36    3.11     0.00    0.00    0.00    0.00
  305    0.00    0.01    0.00    0.08    0.00    0.00    4.70    0.31    4.51    0.12    0.00    0.00    0.00    0.00    0.12     0.00    0.00    0.00    0.00
  306    0.00    0.00    0.00    0.08    0.00    0.00    4.57    0.20    2.71    0.11    0.00    0.00    0.00    0.00    0.10     0.00    0.00    0.00    0.00
  307    0.00    0.03    0.00    0.08    0.00    0.00    4.61    0.24    3.54    0.12    0.00    0.00    0.00    0.00    0.11     0.00    0.00    0.00    0.00
  308    0.00    0.00    0.00    0.08    0.00    0.00    4.46    0.23    3.05    0.11    0.00    0.00    0.00    0.00    0.17     0.00    0.00    0.00    0.00
  309    0.00    0.00    0.00    0.08    0.00    0.00    4.24    0.27    3.88    0.11    0.00    0.00    0.00    0.00    0.17     0.00    0.00    0.00    0.00
  310    0.00    0.00    0.00    0.07    0.00    0.00    4.07    0.22    3.19    0.11    0.00    0.00    0.00    0.00    0.11     0.00    0.00    0.00    0.00
  311    0.00    0.00    0.00    0.07    0.00    0.00    3.92    0.24    3.63    0.10    0.00    0.00    0.00    0.00    0.18     0.00    0.00    0.00    0.00
  312    0.00    0.00    0.00    0.07    0.00    0.00    3.76    0.22    3.22    0.10    0.00    0.00    0.00    0.00    0.17     0.00    0.00    0.00    0.00
  313    0.00    0.03    0.00    0.06    0.00    0.00    3.79    0.31    5.27    0.10    0.00    0.00    0.00    0.00    0.19     0.00    0.00    0.00    0.00
  314    0.00    0.07    0.00    0.06    0.00    0.00    4.13    0.31    4.37    0.11    0.00    0.00    0.00    0.00    0.24     0.00    0.00    0.00    0.00
  315    0.00    0.01    0.00    0.06    0.00    0.00    3.98    0.25    3.47    0.10    0.00    0.00    0.00    0.00    0.23     0.00    0.00    0.00    0.00
  316    0.00    0.00    0.00    0.05    0.00    0.00    3.82    0.28    4.16    0.09    0.00    0.00    0.00    0.00    0.22     0.00    0.00    0.00    0.00
  317    0.00    0.03    0.00    0.05    0.00    0.00    4.03    0.25    3.53    0.11    0.00    0.00    0.00    0.00    0.21     0.00    0.00    0.00    0.00
  318    0.00    0.02    0.00    0.05    0.00    0.00    3.78    0.32    4.70    0.10    0.00    0.00    0.00    0.00    0.19     0.00    0.00    0.00    0.00
  319    0.00    0.00    0.00    0.05    0.00    0.00    3.62    0.23    3.26    0.08    0.00    0.00    0.00    0.00    0.16     0.00    0.00    0.00    0.00
  320    0.00    0.00    0.00    0.05    0.00    0.00    3.72    0.27    4.15    0.07    0.00    0.00    0.00    0.00    0.12     0.00    0.00    0.00    0.00
  321    0.00    0.08    0.00    0.04    0.00    0.00    4.21    0.25    3.77    0.09    0.00    0.00    0.00    0.00    0.10     0.00    0.00    0.00    0.00
  322    0.00    0.08    0.00    0.04    0.00    0.00    4.62    0.20    2.27    0.10    0.00    0.00    0.00    0.00    0.07     0.00    0.00    0.00    0.00
  323    0.00    0.02    0.00    0.04    0.00    0.00    4.62    0.20    2.69    0.10    0.00    0.00    0.00    0.00    0.05     0.00    0.00    0.00    0.00
  324    0.00    0.01    0.00    0.04    0.00    0.00    4.51    0.25    3.53    0.09    0.00    0.00    0.00    0.00    0.05     0.00    0.00    0.00    0.00
  325    0.00    0.00    0.00    0.04    0.00    0.00    4.28    0.30    4.33    0.08    0.00    0.00    0.00    0.00    0.01     0.00    0.00    0.00    0.00
  326    0.67    0.00    0.00    0.04    0.64    0.00    4.28    0.10    1.14    0.07    0.00    0.00    0.00    0.04    0.05     0.00    0.00    0.00    0.00
  327    3.81    0.00    0.00    0.04    3.18    0.00    4.84    0.05    0.46    0.07    0.00    0.00    0.00    0.18    0.04     0.00    0.00    0.00    0.00
  328    0.00    0.00    0.00    0.04    0.00    0.00    4.69    0.19    2.02    0.07    0.00    0.00    0.00    0.00    0.00     0.00    0.00    0.00    0.00
  329    0.00    0.00    0.00    0.05    0.01    0.00    4.52    0.21    2.32    0.07    0.00    0.00    0.00    0.00    0.00     0.00    0.00    0.00    0.00
  330    0.00    0.00    0.00    0.05    0.00    0.00    4.41    0.17    1.92    0.08    0.00    0.00    0.00    0.00    0.00     0.00    0.00    0.00    0.00
  331    0.00    0.01    0.00    0.05    0.00    0.00    4.27    0.27    2.92    0.08    0.00    0.00    0.00    0.00    0.00     0.00    0.00    0.00    0.00
  332    0.00    0.00    0.00    0.05    0.00    0.00    4.05    0.30    3.94    0.08    0.00    0.00    0.00    0.00    0.02     0.00    0.00    0.00    0.00
  333    0.00    0.02    0.00    0.05    0.00    0.00    4.11    0.21    3.03    0.09    0.00    0.00    0.00    0.00    0.01     0.00    0.00    0.00    0.00
  334    0.00    0.01    0.00    0.06    0.00    0.00    4.04    0.18    2.47    0.09    0.00    0.00    0.00    0.00    0.00     0.00    0.00    0.00    0.00
   11    4.48    0.46    0.05    1.67    3.84    0.00    4.04    7.03   97.46    2.81    0.00    0.00    0.00    0.22    3.11     0.00    0.00    0.00    0.00
  335    0.00    0.00    0.00    0.06    0.00    0.00    3.91    0.20    3.21    0.09    0.00    0.00    0.00    0.00    0.02     0.00    0.00    0.00    0.00
  336    0.00    0.00    0.00    0.06    0.00    0.00    3.79    0.14    2.20    0.09    0.00    0.00    0.00    0.00    0.00     0.00    0.00    0.00    0.00
  337    0.00    0.00    0.00    0.06    0.00    0.00    3.70    0.15    2.48    0.09    0.00    0.00    0.00    0.00    0.00     0.00    0.00    0.00    0.00
  338    2.08    0.01    0.00    0.06    1.82    0.00    3.94    0.04    0.48    0.09    0.00    0.00    0.00    0.12    0.00     0.00    0.00    0.00    0.00
  339    0.11    0.00    0.00    0.07    0.12    0.00    3.89    0.06    0.87    0.09    0.00    0.00    0.00    0.01    0.00     0.00    0.00    0.00    0.00
  340    0.00    0.00    0.00    0.07    0.00    0.00    3.88    0.15    1.84    0.09    0.00    0.00    0.00    0.00    0.00     0.00    0.00    0.00    0.00
  341    0.00    0.02    0.00    0.07    0.01    0.00    3.85    0.11    1.60    0.11    0.00    0.00    0.00    0.00    0.00     0.00    0.00    0.00    0.00
  342    0.00    0.00    0.00    0.07    0.03    0.00    3.75    0.14    2.25    0.09    0.00    0.00    0.00    0.00    0.00     0.00    0.00    0.00    0.00
  343    0.20    0.01    0.00    0.07    0.19    0.00    3.82    0.08    1.21    0.10    0.00    0.00    0.00    0.01    0.00     0.00    0.00    0.00    0.00
  344    0.00    0.03    0.00    0.07    0.00    0.00    3.88    0.12    1.86    0.11    0.00    0.00    0.00    0.00    0.00     0.00    0.00    0.00    0.00
  345    0.00    0.00    0.00    0.07    0.00    0.00    3.78    0.14    2.25    0.10    0.00    0.00    0.00    0.00    0.00     0.00    0.00    0.00    0.00
  346    0.00    0.00    0.00    0.08    0.00    0.00    3.72    0.09    1.43    0.10    0.00    0.00    0.00    0.00    0.00     0.00    0.00    0.00    0.00
  347    0.00    0.00    0.00    0.08    0.00    0.00    3.68    0.09    1.37    0.10    0.00    0.00    0.00    0.00    0.00     0.00    0.00    0.00    0.00
  348    0.00    0.04    0.00    0.08    0.00    0.00    4.00    0.06    0.81    0.11    0.00    0.00    0.00    0.00    0.00     0.00    0.00    0.00    0.00
  349    0.00    0.01    0.00    0.08    0.00    0.00    3.98    0.08    1.22    0.11    0.00    0.00    0.00    0.00    0.00     0.00    0.00    0.00    0.00
  350    0.00    0.00    0.00    0.08    0.00    0.00    3.89    0.12    1.95    0.10    0.00    0.00    0.00    0.00    0.00     0.00    0.00    0.00    0.00
  351    0.00    0.01    0.00    0.08    0.00    0.00    3.91    0.08    1.10    0.11    0.00    0.00    0.00    0.00    0.00     0.00    0.00    0.00    0.00
  352    0.00    0.00    0.00    0.08    0.00    0.00    3.86    0.08    1.27    0.10    0.00    0.00    0.00    0.00    0.00     0.00    0.00    0.00    0.00
  353    0.00    0.00    0.00    0.08    0.00    0.00    3.82    0.05    1.57    0.10    0.00    0.00    0.00    0.00    0.00     0.00    0.00    0.00    0.00
  354    0.00    0.00    0.00    0.08    0.00    0.00    3.79    0.06    1.81    0.10    0.00    0.00    0.00    0.00    0.00     0.00    0.00    0.00    0.00
  355    0.06    0.00    0.00    0.08    0.06    0.00    3.77    0.03    0.86    0.10    0.00    0.00    0.00    0.01    0.00     0.00    0.00    0.00    0.00
  356    0.00    0.00    0.00    0.08    0.00    0.00    3.73    0.05    1.81    0.10    0.00    0.00    0.00    0.00    0.00     0.00    0.00    0.00    0.00
  357    0.00    0.00    0.00    0.08    0.00    0.00    3.69    0.06    2.27    0.09    0.00    0.00    0.00    0.00    0.00     0.00    0.00    0.00    0.00
  358    0.00    0.00    0.00    0.07    0.00    0.00    3.65    0.06    1.87    0.09    0.00    0.00    0.00    0.00    0.00     0.00    0.00    0.00    0.00
  359    0.00    0.00    0.00    0.07    0.00    0.00    3.62    0.05    1.76    0.09    0.00    0.00    0.00    0.00    0.00     0.00    0.00    0.00    0.00
  360    0.00    0.00    0.00    0.07    0.00    0.00    3.58    0.06    2.00    0.09    0.00    0.00    0.00    0.00    0.00     0.00    0.00    0.00    0.00
  361    0.00    0.00    0.00    0.07    0.00    0.00    3.57    0.05    1.49    0.09    0.00    0.00    0.00    0.00    0.00     0.00    0.00    0.00    0.00
  362    0.00    0.00    0.00    0.07    0.00    0.00    3.52    0.07    2.43    0.09    0.00    0.00    0.00    0.00    0.00     0.00    0.00    0.00    0.00
  363    0.00    0.00    0.00    0.07    0.00    0.00    3.49    0.06    1.92    0.08    0.00    0.00    0.00    0.00    0.00     0.00    0.00    0.00    0.00
  364    0.00    0.00    0.00    0.06    0.00    0.00    3.46    0.07    2.27    0.08    0.00    0.00    0.00    0.00    0.00     0.00    0.00    0.00    0.00
  365    0.00    0.00    0.00    0.06    0.00    0.00    3.42    0.06    2.07    0.08    0.00    0.00    0.00    0.00    0.00     0.00    0.00    0.00    0.00
   12    2.45    0.15    0.02    2.21    2.23    0.00    3.42    2.67   53.53    2.94    0.00    0.00    0.00    0.14    0.03     0.00    0.00    0.00    0.00

 1999  333.30   33.35    2.72   86.36  152.57    0.00    3.42  270.82 1322.18  125.25    2.12    1.51    0.20  180.89   45.29     0.45    0.11    0.06    0.00
1
    SWAT Jan 26 2015    VER 2012/Rev 636                                            

    General Input/Output section (file.cio):                                        
    1/26/2018 12:00:00 AM ARCGIS-SWAT interface AV                                  
                                                                                    
Annual Summary for Watershed in year    2 of simulation

UNIT                                    PERCO    TILE                           WATER     SED     NO3     NO3     NO3     NO3        N       P       P
TIME     PREC    SURQ    LATQ     GWQ    LATE       Q     SW       ET     PET   YIELD   YIELD    SURQ    LATQ    PERC    CROP  ORGANIC SOLUBLE ORGANIC TILENO3
         (mm)    (mm)    (mm)    (mm)    (mm)    (mm)    (mm)    (mm)    (mm)    (mm)    (mm)   ------------------(kg nutrient/ha)-------------------- (kg/ha)
    1    0.00    0.00    0.00    0.06    0.00    0.00    3.39    0.05    1.66    0.08    0.00    0.00    0.00    0.00    0.00     0.00    0.00    0.00    0.00
    2    0.77    0.00    0.00    0.06    0.75    0.00    3.41    0.01    0.41    0.08    0.00    0.00    0.00    0.07    0.00     0.00    0.00    0.00    0.00
    3    0.92    0.00    0.00    0.06    0.88    0.00    3.44    0.02    0.28    0.08    0.00    0.00    0.00    0.08    0.00     0.00    0.00    0.00    0.00
    4    0.00    0.00    0.00    0.06    0.00    0.00    3.42    0.04    1.22    0.08    0.00    0.00    0.00    0.00    0.00     0.00    0.00    0.00    0.00
    5    0.00    0.00    0.00    0.06    0.00    0.00    3.39    0.05    1.63    0.08    0.00    0.00    0.00    0.00    0.00     0.00    0.00    0.00    0.00
    6    0.00    0.00    0.00    0.06    0.00    0.00    3.36    0.05    1.52    0.08    0.00    0.00    0.00    0.00    0.00     0.00    0.00    0.00    0.00
    7    0.00    0.00    0.00    0.06    0.00    0.00    3.34    0.04    1.30    0.08    0.00    0.00    0.00    0.00    0.00     0.00    0.00    0.00    0.00
    8    0.00    0.00    0.00    0.06    0.00    0.00    3.30    0.06    2.10    0.08    0.00    0.00    0.00    0.00    0.00     0.00    0.00    0.00    0.00
    9    0.00    0.00    0.00    0.06    0.00    0.00    3.27    0.06    2.06    0.07    0.00    0.00    0.00    0.00    0.00     0.00    0.00    0.00    0.00
   10    0.00    0.00    0.00    0.05    0.00    0.00    3.23    0.05    2.00    0.07    0.00    0.00    0.00    0.00    0.00     0.00    0.00    0.00    0.00
   11    0.00    0.00    0.00    0.05    0.00    0.00    3.20    0.05    1.79    0.07    0.00    0.00    0.00    0.00    0.00     0.00    0.00    0.00    0.00
   12    0.00    0.00    0.00    0.05    0.00    0.00    3.17    0.06    2.26    0.06    0.00    0.00    0.00    0.00    0.00     0.00    0.00    0.00    0.00
   13    0.00    0.00    0.00    0.04    0.00    0.00    3.12    0.06    2.41    0.06    0.00    0.00    0.00    0.00    0.00     0.00    0.00    0.00    0.00
   14    0.00    0.00    0.00    0.04    0.00    0.00    3.10    0.04    1.19    0.06    0.00    0.00    0.00    0.00    0.00     0.00    0.00    0.00    0.00
   15    0.00    0.00    0.00    0.04    0.00    0.00    3.08    0.05    1.65    0.05    0.00    0.00    0.00    0.00    0.00     0.00    0.00    0.00    0.00
   16    0.00    0.00    0.00    0.04    0.00    0.00    3.04    0.06    1.88    0.05    0.00    0.00    0.00    0.00    0.00     0.00    0.00    0.00    0.00
   17    0.00    0.00    0.00    0.04    0.00    0.00    3.02    0.05    1.77    0.05    0.00    0.00    0.00    0.00    0.00     0.00    0.00    0.00    0.00
   18    0.00    0.00    0.00    0.03    0.00    0.00    2.97    0.07    2.79    0.05    0.00    0.00    0.00    0.00    0.00     0.00    0.00    0.00    0.00
   19    0.00    0.00    0.00    0.03    0.00    0.00    2.94    0.05    1.85    0.04    0.00    0.00    0.00    0.00    0.00     0.00    0.00    0.00    0.00
   20    0.00    0.00    0.00    0.03    0.00    0.00    2.91    0.06    2.57    0.04    0.00    0.00    0.00    0.00    0.00     0.00    0.00    0.00    0.00
   21    0.00    0.00    0.00    0.02    0.00    0.00    2.87    0.06    2.56    0.04    0.00    0.00    0.00    0.00    0.00     0.00    0.00    0.00    0.00
   22    0.00    0.00    0.00    0.02    0.00    0.00    2.83    0.05    2.10    0.04    0.00    0.00    0.00    0.00    0.00     0.00    0.00    0.00    0.00
   23    0.00    0.00    0.00    0.02    0.00    0.00    2.80    0.05    2.18    0.03    0.00    0.00    0.00    0.00    0.00     0.00    0.00    0.00    0.00
   24    0.00    0.00    0.00    0.02    0.00    0.00    2.78    0.05    1.69    0.03    0.00    0.00    0.00    0.00    0.00     0.00    0.00    0.00    0.00
   25    0.00    0.00    0.00    0.02    0.00    0.00    2.75    0.05    1.80    0.03    0.00    0.00    0.00    0.00    0.00     0.00    0.00    0.00    0.00
   26    0.00    0.00    0.00    0.02    0.00    0.00    2.73    0.04    1.81    0.03    0.00    0.00    0.00    0.00    0.00     0.00    0.00    0.00    0.00
   27    6.27    0.00    0.00    0.03    5.42    0.00    3.47    0.03    0.39    0.04    0.00    0.00    0.00    0.39    0.00     0.00    0.00    0.00    0.00
   28    0.09    0.00    0.00    0.03    0.09    0.00    3.44    0.05    1.32    0.04    0.00    0.00    0.00    0.01    0.00     0.00    0.00    0.00    0.00
   29    0.00    0.00    0.00    0.04    0.00    0.00    3.40    0.06    1.51    0.05    0.00    0.00    0.00    0.00    0.00     0.00    0.00    0.00    0.00
   30    0.00    0.00    0.00    0.04    0.00    0.00    3.36    0.06    1.88    0.05    0.00    0.00    0.00    0.00    0.00     0.00    0.00    0.00    0.00
   31    0.00    0.00    0.00    0.04    0.00    0.00    3.32    0.05    1.39    0.06    0.00    0.00    0.00    0.00    0.00     0.00    0.00    0.00    0.00
    1    8.05    0.00    0.00    1.30    7.13    0.00    3.32    1.54   52.96    1.74    0.00    0.00    0.00    0.55    0.09     0.00    0.00    0.00    0.00
   32    0.00    0.00    0.00    0.05    0.00    0.00    3.27    0.07    1.95    0.06    0.00    0.00    0.00    0.00    0.00     0.00    0.00    0.00    0.00
   33    0.00    0.00    0.00    0.05    0.00    0.00    3.22    0.08    2.30    0.06    0.00    0.00    0.00    0.00    0.00     0.00    0.00    0.00    0.00
   34    0.00    0.00    0.00    0.05    0.00    0.00    3.16    0.10    2.82    0.07    0.00    0.00    0.00    0.00    0.01     0.00    0.00    0.00    0.00
   35    0.00    0.00    0.00    0.06    0.00    0.00    3.09    0.10    3.28    0.07    0.00    0.00    0.00    0.00    0.01     0.00    0.00    0.00    0.00
   36    0.00    0.00    0.00    0.06    0.00    0.00    3.04    0.07    2.52    0.07    0.00    0.00    0.00    0.00    0.00     0.00    0.00    0.00    0.00
   37    0.00    0.00    0.00    0.06    0.00    0.00    2.98    0.09    2.61    0.07    0.00    0.00    0.00    0.00    0.01     0.00    0.00    0.00    0.00
   38    0.00    0.00    0.00    0.06    0.00    0.00    2.92    0.09    2.97    0.07    0.00    0.00    0.00    0.00    0.01     0.00    0.00    0.00    0.00
   39    0.00    0.00    0.00    0.06    0.00    0.00    2.87    0.08    2.37    0.08    0.00    0.00    0.00    0.00    0.01     0.00    0.00    0.00    0.00
   40    0.00    0.00    0.00    0.06    0.00    0.00    2.82    0.09    2.69    0.08    0.00    0.00    0.00    0.00    0.01     0.00    0.00    0.00    0.00
   41    0.00    0.00    0.00    0.06    0.00    0.00    2.76    0.09    2.75    0.08    0.00    0.00    0.00    0.00    0.01     0.00    0.00    0.00    0.00
   42    0.00    0.00    0.00    0.07    0.00    0.00    2.72    0.08    1.78    0.08    0.00    0.00    0.00    0.00    0.01     0.00    0.00    0.00    0.00
   43    0.00    0.00    0.00    0.07    0.00    0.00    2.67    0.11    2.39    0.08    0.00    0.00    0.00    0.00    0.00     0.00    0.00    0.00    0.00
   44    0.50    0.00    0.00    0.07    0.49    0.00    2.62    0.15    2.92    0.08    0.00    0.00    0.00    0.02    0.00     0.00    0.00    0.00    0.00
   45    0.00    0.00    0.00    0.07    0.00    0.00    2.55    0.10    3.84    0.08    0.00    0.00    0.00    0.00    0.00     0.00    0.00    0.00    0.00
   46    0.00    0.00    0.00    0.07    0.00    0.00    2.48    0.14    3.84    0.08    0.00    0.00    0.00    0.00    0.01     0.00    0.00    0.00    0.00
   47    0.00    0.00    0.00    0.07    0.00    0.00    2.43    0.09    3.56    0.08    0.00    0.00    0.00    0.00    0.01     0.00    0.00    0.00    0.00
   48    0.00    0.00    0.00    0.07    0.00    0.00    2.38    0.07    3.15    0.08    0.00    0.00    0.00    0.00    0.01     0.00    0.00    0.00    0.00
   49    0.14    0.00    0.00    0.07    0.14    0.00    2.35    0.06    2.32    0.08    0.00    0.00    0.00    0.01    0.00     0.00    0.00    0.00    0.00
   50    0.00    0.00    0.00    0.07    0.00    0.00    2.33    0.05    1.60    0.08    0.00    0.00    0.00    0.00    0.00     0.00    0.00    0.00    0.00
   51    0.00    0.00    0.00    0.07    0.00    0.00    2.30    0.05    2.20    0.08    0.00    0.00    0.00    0.00    0.00     0.00    0.00    0.00    0.00
   52    0.00    0.00    0.00    0.07    0.00    0.00    2.27    0.06    2.22    0.08    0.00    0.00    0.00    0.00    0.01     0.00    0.00    0.00    0.00
   53    0.00    0.00    0.00    0.07    0.00    0.00    2.23    0.08    3.38    0.08    0.00    0.00    0.00    0.00    0.01     0.00    0.00    0.00    0.00
   54    1.59    0.00    0.00    0.07    1.46    0.00    2.34    0.01    0.52    0.08    0.00    0.00    0.00    0.12    0.00     0.00    0.00    0.00    0.00
   55    0.00    0.00    0.00    0.07    0.00    0.00    2.29    0.09    3.48    0.08    0.00    0.00    0.00    0.00    0.02     0.00    0.00    0.00    0.00
   56    0.00    0.00    0.00    0.07    0.00    0.00    2.25    0.10    3.93    0.08    0.00    0.00    0.00    0.00    0.02     0.00    0.00    0.00    0.00
   57    0.00    0.00    0.00    0.07    0.00    0.00    2.20    0.09    3.07    0.08    0.00    0.00    0.00    0.00    0.01     0.00    0.00    0.00    0.00
   58    0.00    0.00    0.00    0.07    0.00    0.00    2.17    0.08    2.28    0.08    0.00    0.00    0.00    0.00    0.00     0.00    0.00    0.00    0.00
   59    0.00    0.00    0.00    0.07    0.00    0.00    2.13    0.08    3.16    0.08    0.00    0.00    0.00    0.00    0.00     0.00    0.00    0.00    0.00
   60    0.00    0.00    0.00    0.07    0.00    0.00    2.09    0.09    3.56    0.08    0.00    0.00    0.00    0.00    0.02     0.00    0.00    0.00    0.00
    2    2.24    0.00    0.00    1.85    2.10    0.00    2.09    2.43   79.43    2.21    0.00    0.00    0.00    0.16    0.16     0.00    0.00    0.00    0.00
   61    0.00    0.00    0.00    0.06    0.00    0.00    2.04    0.09    3.46    0.08    0.00    0.00    0.00    0.00    0.01     0.00    0.00    0.00    0.00
   62    4.89    0.00    0.00    0.07    4.35    0.00    2.48    0.02    0.67    0.08    0.00    0.00    0.00    0.25    0.00     0.00    0.00    0.00    0.00
   63    2.80    0.00    0.00    0.07    2.33    0.00    2.88    0.09    1.48    0.09    0.00    0.00    0.00    0.22    0.02     0.00    0.00    0.00    0.00
   64    0.00    0.00    0.00    0.08    0.00    0.00    2.79    0.14    2.93    0.09    0.00    0.00    0.00    0.00    0.01     0.00    0.00    0.00    0.00
   65    0.00    0.00    0.00    0.08    0.00    0.00    2.68    0.16    3.73    0.10    0.00    0.00    0.00    0.00    0.02     0.00    0.00    0.00    0.00
   66    0.00    0.00    0.00    0.09    0.00    0.00    2.55    0.20    4.87    0.10    0.00    0.00    0.00    0.00    0.03     0.00    0.00    0.00    0.00
   67    0.94    0.00    0.00    0.09    0.92    0.00    2.45    0.13    3.44    0.10    0.00    0.00    0.00    0.04    0.02     0.00    0.00    0.00    0.00
   68    3.59    0.00    0.00    0.10    3.15    0.00    2.79    0.10    2.43    0.11    0.00    0.00    0.00    0.26    0.02     0.00    0.00    0.00    0.00
   69    0.00    0.00    0.00    0.11    0.00    0.00    2.68    0.16    3.58    0.12    0.00    0.00    0.00    0.00    0.01     0.00    0.00    0.00    0.00
   70    0.00    0.00    0.00    0.11    0.00    0.00    2.63    0.08    1.84    0.12    0.00    0.00    0.00    0.00    0.01     0.00    0.00    0.00    0.00
   71    0.00    0.00    0.00    0.12    0.00    0.00    2.57    0.11    2.61    0.13    0.00    0.00    0.00    0.00    0.00     0.00    0.00    0.00    0.00
   72    0.00    0.00    0.00    0.12    0.00    0.00    2.50    0.11    2.73    0.13    0.00    0.00    0.00    0.00    0.01     0.00    0.00    0.00    0.00
   73    0.00    0.00    0.00    0.12    0.00    0.00    2.43    0.12    2.95    0.14    0.00    0.00    0.00    0.00    0.01     0.00    0.00    0.00    0.00
   74    0.00    0.00    0.00    0.13    0.00    0.00    2.36    0.12    3.20    0.14    0.00    0.00    0.00    0.00    0.01     0.00    0.00    0.00    0.00
   75    1.14    0.00    0.00    0.13    1.11    0.00    2.30    0.11    3.20    0.14    0.00    0.00    0.00    0.03    0.02     0.00    0.00    0.00    0.00
   76    3.60    0.00    0.00    0.14    3.37    0.00    2.45    0.06    1.56    0.15    0.00    0.00    0.00    0.19    0.00     0.00    0.00    0.00    0.00
   77    0.19    0.00    0.00    0.14    0.19    0.00    2.38    0.13    3.22    0.16    0.00    0.00    0.00    0.11    0.00     0.00    0.00    0.00    0.00
   78    0.25    0.00    0.00    0.15    0.24    0.00    2.35    0.06    1.78    0.16    0.00    0.00    0.00    0.08    0.01     0.00    0.00    0.00    0.00
   79    0.00    0.00    0.00    0.16    0.00    0.00    2.29    0.12    3.19    0.17    0.00    0.00    0.00    0.00    0.00     0.00    0.00    0.00    0.00
   80    0.00    0.00    0.00    0.16    0.00    0.00    2.23    0.10    2.57    0.17    0.00    0.00    0.00    0.00    0.02     0.00    0.00    0.00    0.00
   81    2.84    0.00    0.00    0.17    2.70    0.00    2.32    0.02    0.45    0.18    0.00    0.00    0.00    1.07    0.01     0.00    0.00    0.00    0.00
   82    3.84    0.00    0.00    0.18    3.67    0.00    2.41    0.02    0.35    0.19    0.00    0.00    0.00    1.43    0.00     0.00    0.00    0.00    0.00
   83    1.32    0.00    0.00    0.18    1.25    0.00    2.44    0.07    1.64    0.20    0.00    0.00    0.00    0.28    0.01     0.00    0.00    0.00    0.00
   84    0.00    0.00    0.00    0.19    0.00    0.00    2.35    0.15    3.90    0.21    0.00    0.00    0.00    0.00    0.04     0.00    0.00    0.00    0.00
   85    0.00    0.00    0.00    0.20    0.00    0.00    2.26    0.15    3.93    0.21    0.00    0.00    0.00    0.00    0.04     0.00    0.00    0.00    0.00
   86    0.00    0.00    0.00    0.21    0.00    0.00    2.19    0.13    3.88    0.22    0.00    0.00    0.00    0.00    0.04     0.00    0.00    0.00    0.00
   87    0.00    0.00    0.00    0.21    0.00    0.00    2.11    0.16    4.63    0.23    0.00    0.00    0.00    0.00    0.05     0.00    0.00    0.00    0.00
   88    0.00    0.00    0.00    0.22    0.00    0.00    2.04    0.12    3.91    0.23    0.00    0.00    0.00    0.00    0.05     0.00    0.00    0.00    0.00
   89    0.08    0.00    0.00    0.22    0.08    0.00    1.99    0.12    4.07    0.23    0.00    0.00    0.00    0.00    0.05     0.00    0.00    0.00    0.00
   90   12.05    0.02    0.00    0.23    5.89    0.00    7.99    0.09    2.72    0.26    0.00    0.01    0.00    4.68    0.03     0.00    0.00    0.00    0.00
   91   17.29    0.19    0.00    0.25    9.04    0.00   15.58    0.24    1.04    0.37    0.01    0.00    0.00    5.76    0.03     0.00    0.00    0.00    0.00
    3   54.83    0.21    0.00    4.49   38.30    0.00   15.58    3.48   85.96    5.00    0.01    0.01    0.00   14.39    0.57     0.00    0.00    0.00    0.00
   92    5.13    0.02    0.01    0.27    3.66    0.00   16.37    0.73    1.87    0.32    0.00    0.00    0.00    2.04    0.01     0.00    0.00    0.00    0.00
   93    0.95    0.11    0.01    0.28    0.78    0.00   16.65    1.21    3.71    0.36    0.00    0.00    0.00    0.74    0.00     0.00    0.00    0.00    0.00
   94    0.31    0.05    0.00    0.30    0.23    0.00   16.27    0.56    2.23    0.37    0.00    0.00    0.00    0.14    0.03     0.00    0.00    0.00    0.00
   95    0.00    0.00    0.00    0.31    0.00    0.00   15.36    0.99    4.51    0.36    0.00    0.00    0.00    0.00    0.02     0.00    0.00    0.00    0.00
   96    0.00    0.02    0.00    0.33    0.36    0.00   14.36    1.14    6.21    0.38    0.00    0.00    0.00    0.50    0.10     0.00    0.00    0.00    0.00
   97    0.00    0.05    0.00    0.34    0.26    0.00   13.60    0.89    5.55    0.41    0.00    0.00    0.00    0.24    0.13     0.00    0.00    0.00    0.00
   98    0.00    0.01    0.00    0.35    0.04    0.00   12.92    0.75    5.33    0.39    0.00    0.00    0.00    0.03    0.13     0.00    0.00    0.00    0.00
   99    0.00    0.00    0.00    0.36    0.00    0.00   12.42    0.57    4.12    0.39    0.00    0.00    0.00    0.00    0.08     0.00    0.00    0.00    0.00
  100    0.00    0.02    0.00    0.37    0.15    0.00   11.77    0.76    5.93    0.40    0.00    0.00    0.00    0.04    0.15     0.00    0.00    0.00    0.00
  101    0.00    0.01    0.00    0.38    0.04    0.00   11.24    0.61    5.01    0.41    0.00    0.00    0.00    0.01    0.13     0.00    0.00    0.00    0.00
  102    0.63    0.00    0.00    0.38    0.40    0.00   10.99    0.52    4.52    0.41    0.00    0.00    0.00    0.27    0.14     0.00    0.00    0.00    0.00
  103    0.00    0.02    0.00    0.39    0.15    0.00   10.54    0.55    4.53    0.42    0.00    0.00    0.00    0.01    0.16     0.00    0.00    0.00    0.00
  104    0.00    0.02    0.00    0.39    0.04    0.00   10.06    0.66    5.71    0.43    0.00    0.00    0.00    0.00    0.11     0.00    0.00    0.00    0.00
  105    0.00    0.00    0.00    0.40    0.00    0.00    9.43    0.71    6.52    0.43    0.00    0.00    0.00    0.00    0.12     0.00    0.00    0.00    0.00
  106    0.00    0.02    0.00    0.40    0.16    0.00    9.15    0.35    3.32    0.43    0.00    0.00    0.00    0.00    0.07     0.00    0.00    0.00    0.00
  107    0.00    0.01    0.00    0.40    0.01    0.00    8.76    0.46    4.30    0.43    0.00    0.00    0.00    0.00    0.01     0.00    0.00    0.00    0.00
  108    0.00    0.00    0.00    0.40    0.00    0.00    8.35    0.47    4.60    0.43    0.00    0.00    0.00    0.00    0.11     0.00    0.00    0.00    0.00
  109    0.19    0.00    0.00    0.40    0.14    0.00    7.78    0.71    7.22    0.43    0.00    0.00    0.00    0.21    0.15     0.00    0.00    0.00    0.00
  110    0.00    0.00    0.00    0.40    0.00    0.00    7.28    0.59    6.31    0.43    0.00    0.00    0.00    0.00    0.14     0.00    0.00    0.00    0.00
  111    0.00    0.01    0.00    0.40    0.00    0.00    6.88    0.56    5.16    0.43    0.00    0.00    0.00    0.00    0.17     0.00    0.00    0.00    0.00
  112    0.00    0.00    0.00    0.40    0.00    0.00    6.39    0.56    5.76    0.43    0.00    0.00    0.00    0.00    0.19     0.00    0.00    0.00    0.00
  113    0.00    0.00    0.00    0.40    0.00    0.00    5.86    0.62    6.33    0.43    0.00    0.00    0.00    0.00    0.23     0.00    0.00    0.00    0.00
  114    0.00    0.00    0.00    0.40    0.00    0.00    5.54    0.37    4.01    0.42    0.00    0.00    0.00    0.00    0.19     0.00    0.00    0.00    0.00
  115    1.11    0.03    0.00    0.40    0.76    0.00    5.70    0.49    4.21    0.43    0.00    0.00    0.00    0.38    0.31     0.00    0.00    0.00    0.00
  116    0.00    0.02    0.00    0.40    0.01    0.00    5.41    0.60    5.48    0.43    0.00    0.00    0.00    0.03    0.24     0.00    0.00    0.00    0.00
  117    0.00    0.03    0.00    0.39    0.00    0.00    5.05    0.62    5.15    0.43    0.00    0.00    0.00    0.01    0.38     0.00    0.00    0.00    0.00
  118    0.00    0.05    0.00    0.39    0.18    0.00    4.80    0.71    6.17    0.44    0.00    0.00    0.00    0.54    0.28     0.00    0.00    0.00    0.00
  119    0.00    0.06    0.00    0.39    0.00    0.00    4.94    0.62    6.29    0.44    0.00    0.00    0.00    0.00    0.36     0.00    0.00    0.00    0.00
  120    0.11    0.05    0.00    0.38    0.13    0.00    4.74    0.51    4.87    0.44    0.00    0.00    0.00    0.11    0.35     0.00    0.00    0.00    0.00
  121    3.10    0.06    0.00    0.38    1.89    0.00    6.31    0.17    1.49    0.44    0.00    0.00    0.00    0.80    0.08     0.00    0.00    0.00    0.00
    4   11.53    0.65    0.06   11.19    9.39    0.00    6.31   19.06  146.41   12.39    0.01    0.02    0.01    6.09    4.55     0.00    0.00    0.00    0.00
  122    2.82    0.02    0.00    0.38    1.63    0.00    7.11    0.50    2.89    0.44    0.00    0.00    0.00    0.46    0.23     0.00    0.00    0.00    0.00
  123    0.00    0.15    0.00    0.38    0.14    0.00    8.39    0.90    5.17    0.48    0.00    0.06    0.00    0.79    0.36     0.00    0.00    0.00    0.00
  124    0.00    0.24    0.01    0.38    0.06    0.00    8.83    0.90    5.40    0.53    0.00    0.05    0.00    0.45    0.58     0.00    0.00    0.00    0.00
  125    0.00    0.17    0.01    0.38    1.70    0.00    8.59    1.00    5.95    0.53    0.00    0.03    0.00    8.54    0.37     0.00    0.00    0.00    0.00
  126    0.00    0.21    0.01    0.38    0.49    0.00    8.17    1.01    7.58    0.55    0.00    0.04    0.01    2.59    0.30     0.00    0.00    0.00    0.00
  127    0.00    0.06    0.01    0.38    0.22    0.00    7.90    0.84    6.07    0.51    0.00    0.02    0.00    0.82    0.26     0.00    0.00    0.00    0.00
  128    0.00    0.04    0.01    0.37    0.07    0.00    7.28    0.87    7.61    0.50    0.00    0.02    0.00    0.04    0.26     0.00    0.00    0.00    0.00
  129    8.01    0.06    0.01    0.37    3.37    0.00   11.33    0.91    4.22    0.47    0.00    0.02    0.00    2.31    0.18     0.00    0.00    0.00    0.00
  130    5.71    0.04    0.01    0.38    2.45    0.00   13.42    1.19    3.97    0.47    0.00    0.01    0.00    1.12    0.20     0.00    0.00    0.00    0.00
  131    0.00    0.00    0.01    0.37    0.00    0.00   12.01    1.51    6.19    0.45    0.00    0.01    0.00    0.01    0.32     0.00    0.00    0.00    0.00
  132    0.00    0.00    0.01    0.36    0.09    0.00   10.32    1.81    9.96    0.42    0.00    0.01    0.00    0.10    0.40     0.00    0.00    0.00    0.00
  133    0.00    0.08    0.01    0.36    0.05    0.00    9.74    1.27    6.84    0.43    0.00    0.01    0.00    0.00    0.24     0.00    0.00    0.00    0.00
  134    0.00    0.03    0.00    0.36    0.02    0.00    8.97    1.00    5.65    0.42    0.00    0.01    0.00    0.04    0.17     0.00    0.00    0.00    0.00
  135    0.00    0.01    0.00    0.36    0.00    0.00    8.04    1.15    6.42    0.42    0.00    0.00    0.00    0.00    0.34     0.00    0.00    0.00    0.00
  136    0.00    0.07    0.00    0.36    0.07    0.00    7.59    1.26    6.82    0.43    0.00    0.01    0.00    0.04    0.41     0.00    0.00    0.00    0.00
  137    0.00    0.05    0.00    0.36    0.00    0.00    7.03    1.02    5.97    0.45    0.00    0.01    0.00    0.00    0.32     0.00    0.00    0.00    0.00
  138    0.19    0.10    0.01    0.35    0.41    0.00    6.87    0.92    7.27    0.45    0.00    0.00    0.00    0.60    0.33     0.00    0.00    0.00    0.00
  139    0.53    0.09    0.01    0.36    0.50    0.00    7.46    0.42    3.14    0.44    0.00    0.00    0.00    0.24    0.17     0.00    0.00    0.00    0.00
  140    0.14    0.09    0.00    0.35    0.11    0.00    7.59    0.54    3.71    0.44    0.00    0.00    0.00    0.04    0.06     0.00    0.00    0.00    0.00
  141    0.32    0.09    0.01    0.35    0.53    0.00    7.87    0.78    5.44    0.45    0.00    0.03    0.00    0.32    0.29     0.00    0.00    0.00    0.00
  142    0.00    0.09    0.00    0.35    0.04    0.00    7.45    0.88    6.13    0.47    0.00    0.01    0.00    0.07    0.32     0.00    0.00    0.00    0.00
  143    0.00    0.10    0.01    0.35    0.67    0.00    7.37    0.92    6.28    0.47    0.00    0.01    0.00    0.90    0.34     0.00    0.00    0.00    0.00
  144    0.00    0.08    0.01    0.35    0.05    0.00    6.71    0.99    7.65    0.47    0.00    0.01    0.00    0.03    0.35     0.00    0.00    0.00    0.00
  145    0.19    0.07    0.01    0.34    0.56    0.00    6.48    0.72    5.14    0.43    0.00    0.00    0.00    0.30    0.32     0.00    0.00    0.00    0.00
  146    0.20    0.06    0.01    0.33    0.25    0.00    6.47    0.44    3.22    0.43    0.00    0.00    0.00    0.08    0.24     0.00    0.00    0.00    0.00
  147    0.19    0.07    0.01    0.33    0.21    0.00    6.42    0.82    6.07    0.41    0.00    0.00    0.00    0.07    0.22     0.00    0.00    0.00    0.00
  148    0.00    0.06    0.01    0.32    0.09    0.00    6.03    0.86    6.03    0.43    0.00    0.00    0.00    0.02    0.33     0.00    0.00    0.00    0.00
  149    0.00    0.10    0.01    0.32    0.11    0.00    6.03    0.99    7.39    0.43    0.00    0.00    0.00    0.02    0.40     0.00    0.00    0.00    0.00
  150    0.00    0.08    0.01    0.31    0.05    0.00    5.46    1.13    9.02    0.41    0.00    0.00    0.00    0.00    0.32     0.00    0.00    0.00    0.00
  151    0.00    0.05    0.01    0.30    0.01    0.00    4.92    1.08    8.70    0.40    0.00    0.00    0.00    0.00    0.27     0.00    0.00    0.00    0.00
  152    2.08    0.04    0.01    0.30    1.27    0.00    5.34    0.88    6.60    0.39    0.00    0.00    0.00    0.24    0.35     0.00    0.00    0.00    0.00
    5   20.38    2.41    0.20   10.94   15.21    0.00    5.34   29.52  188.53   14.02    0.01    0.39    0.05   20.26    9.26     0.00    0.02    0.00    0.00
  153    3.15    0.15    0.01    0.30    1.53    0.00    7.41    0.82    4.39    0.41    0.00    0.06    0.00    0.28    0.33     0.00    0.00    0.00    0.00
  154    0.00    0.04    0.01    0.30    0.00    0.00    6.95    1.25    7.64    0.41    0.00    0.02    0.00    0.00    0.37     0.00    0.00    0.00    0.00
  155    0.00    0.11    0.01    0.30    0.17    0.00    6.50    1.05    6.21    0.42    0.00    0.01    0.00    0.17    0.50     0.00    0.00    0.00    0.00
  156    0.03    0.09    0.01    0.30    0.07    0.00    6.50    1.15    7.44    0.42    0.00    0.01    0.00    0.01    0.54     0.00    0.00    0.00    0.00
  157    0.00    0.11    0.01    0.30    0.02    0.00    6.32    1.11    7.57    0.44    0.00    0.01    0.00    0.03    0.64     0.00    0.00    0.00    0.00
  158    0.00    0.06    0.01    0.30    0.03    0.00    5.68    1.08    6.35    0.41    0.00    0.01    0.00    0.00    0.57     0.00    0.00    0.00    0.00
  159    0.00    0.05    0.01    0.29    0.03    0.00    4.91    1.23    8.88    0.38    0.00    0.01    0.00    0.00    0.52     0.00    0.00    0.00    0.00
  160    0.00    0.22    0.01    0.28    0.00    0.00    5.92    1.48   10.08    0.41    0.00    0.00    0.00    0.00    0.43     0.00    0.00    0.00    0.00
  161    0.00    0.11    0.01    0.25    0.03    0.00    5.57    1.45    9.89    0.38    0.00    0.00    0.00    0.00    0.47     0.00    0.00    0.00    0.00
  162    0.00    0.16    0.01    0.25    0.01    0.00    5.46    1.29    9.04    0.39    0.00    0.00    0.00    0.00    0.47     0.00    0.00    0.00    0.00
  163    0.00    0.07    0.01    0.25    0.00    0.00    5.32    1.06    7.92    0.38    0.00    0.00    0.00    0.00    0.39     0.00    0.00    0.00    0.00
  164    0.00    0.15    0.01    0.24    0.00    0.00    5.74    1.10    7.44    0.41    0.00    0.00    0.00    0.00    0.34     0.00    0.00    0.00    0.00
  165    0.00    0.09    0.01    0.23    0.01    0.00    5.62    1.19    8.95    0.39    0.00    0.00    0.00    0.00    0.30     0.00    0.00    0.00    0.00
  166    0.00    0.12    0.01    0.22    0.00    0.00    5.56    1.01    7.31    0.37    0.00    0.00    0.00    0.00    0.41     0.00    0.00    0.00    0.00
  167    0.00    0.07    0.01    0.22    0.00    0.00    4.88    1.23    8.91    0.34    0.00    0.00    0.00    0.00    0.37     0.00    0.00    0.00    0.00
  168    0.00    0.06    0.01    0.22    0.00    0.00    4.46    1.02    8.15    0.33    0.00    0.00    0.00    0.00    0.38     0.00    0.00    0.00    0.00
  169    0.00    0.09    0.01    0.20    0.00    0.00    4.75    0.59    4.82    0.31    0.00    0.00    0.00    0.00    0.23     0.00    0.00    0.00    0.00
  170    0.26    0.05    0.01    0.20    0.23    0.00    4.31    0.86    5.25    0.29    0.00    0.00    0.00    0.03    0.15     0.00    0.00    0.00    0.00
  171    0.00    0.05    0.01    0.18    0.00    0.00    4.05    1.04    8.32    0.27    0.00    0.00    0.00    0.00    0.20     0.00    0.00    0.00    0.00
  172    0.00    0.11    0.01    0.16    0.00    0.00    4.34    0.94    8.05    0.26    0.00    0.00    0.00    0.00    0.23     0.00    0.00    0.00    0.00
  173    0.00    0.13    0.01    0.16    0.00    0.00    4.51    0.97    7.90    0.29    0.00    0.00    0.00    0.00    0.31     0.00    0.00    0.00    0.00
  174    0.32    0.10    0.01    0.15    0.30    0.00    4.79    1.09    9.19    0.28    0.01    0.00    0.00    0.04    0.30     0.00    0.00    0.00    0.00
  175    2.32    0.13    0.01    0.15    1.49    0.00    4.97    1.21    7.09    0.28    0.01    0.00    0.00    0.10    0.27     0.00    0.00    0.00    0.00
  176    1.75    0.06    0.01    0.15    0.94    0.00    5.28    1.09    6.60    0.25    0.00    0.00    0.00    0.07    0.27     0.00    0.00    0.00    0.00
  177    0.00    0.06    0.01    0.15    0.00    0.00    5.01    1.18    7.88    0.25    0.00    0.00    0.00    0.00    0.30     0.00    0.00    0.00    0.00
  178    6.58    0.13    0.01    0.15    3.13    0.00    8.53    1.30    5.88    0.28    0.00    0.00    0.00    0.21    0.31     0.00    0.00    0.00    0.00
  179    6.08    0.09    0.01    0.16    2.94    0.00   10.66    1.14    3.83    0.27    0.00    0.00    0.00    0.73    0.37     0.00    0.00    0.00    0.00
  180    0.14    0.00    0.00    0.17    0.13    0.00    9.45    1.28    4.65    0.25    0.00    0.00    0.00    0.01    0.40     0.00    0.00    0.00    0.00
  181    0.00    0.02    0.00    0.17    0.00    0.00    8.12    1.62    6.57    0.25    0.00    0.00    0.00    0.00    0.38     0.00    0.00    0.00    0.00
  182    0.26    0.08    0.00    0.17    0.29    0.00    7.43    1.57    6.45    0.25    0.00    0.00    0.00    0.02    0.49     0.00    0.00    0.00    0.00
    6   20.88    2.76    0.19    6.55   11.36    0.00    7.43   34.39  218.63   10.08    0.02    0.18    0.01    1.69   11.26     0.00    0.03    0.00    0.00
  183    0.00    0.07    0.00    0.17    0.00    0.00    6.54    1.69    7.27    0.26    0.00    0.00    0.00    0.00    0.51     0.00    0.00    0.00    0.00
  184    0.00    0.03    0.01    0.17    0.00    0.00    5.35    1.43    7.48    0.26    0.00    0.00    0.00    0.00    0.42     0.00    0.00    0.00    0.00
  185    0.00    0.05    0.00    0.18    0.00    0.00    5.11    1.19    6.98    0.27    0.00    0.00    0.00    0.00    0.27     0.00    0.00    0.00    0.00
  186    0.00    0.09    0.00    0.18    0.00    0.00    4.88    1.12    6.87    0.29    0.00    0.00    0.00    0.00    0.23     0.00    0.00    0.00    0.00
  187    0.00    0.07    0.00    0.18    0.00    0.00    4.38    1.01    8.16    0.29    0.00    0.00    0.00    0.00    0.18     0.00    0.00    0.00    0.00
  188    0.00    0.08    0.00    0.18    0.00    0.00    4.45    0.97    7.26    0.26    0.00    0.00    0.00    0.00    0.08     0.00    0.00    0.00    0.00
  189    0.00    0.18    0.00    0.18    0.00    0.00    4.96    1.06    8.67    0.29    0.00    0.00    0.00    0.00    0.06     0.00    0.00    0.00    0.00
  190    0.00    0.14    0.01    0.18    0.00    0.00    5.40    1.00    6.62    0.31    0.00    0.00    0.00    0.00    0.06     0.00    0.00    0.00    0.00
  191    0.00    0.11    0.01    0.18    0.00    0.00    5.13    1.07    7.68    0.31    0.00    0.00    0.00    0.00    0.09     0.00    0.00    0.00    0.00
  192    0.00    0.08    0.01    0.18    0.00    0.00    5.06    1.00    7.47    0.29    0.00    0.00    0.00    0.00    0.07     0.00    0.00    0.00    0.00
  193    0.32    0.10    0.01    0.18    0.30    0.00    5.06    0.92    7.54    0.29    0.00    0.00    0.00    0.02    0.08     0.00    0.00    0.00    0.00
  194    1.96    0.08    0.01    0.18    0.90    0.00    6.37    0.86    6.12    0.31    0.00    0.00    0.00    0.28    0.08     0.00    0.00    0.00    0.00
  195    0.23    0.08    0.01    0.18    0.21    0.00    5.88    0.91    5.02    0.31    0.00    0.00    0.00    0.03    0.09     0.00    0.00    0.00    0.00
[...]
   5195  71   Rocky Fo   .155E+00   35.00   72.00    0.16  216.28    0.00    0.00    0.41  264.47   24.03   94.75  351.84    0.00    0.38    0.00    5.77    4.87   21.26
   5196  71   Rocky Fo   .259E-01   35.00   72.00    0.28   77.24    0.00    0.00    0.27  264.47    8.58   92.02  211.36    0.00    0.36    0.00    2.30    1.84    8.58
   5197  71   Rocky Fo   .739E-01   35.00   72.00    0.15  386.22    0.00    0.00    0.61  264.47   42.91   58.79  557.27    0.00    0.76    0.00   13.90    9.77   40.48
   5198  71   Rocky Fo   .130E-01   35.00   72.00    0.16  139.04    0.00    0.00    0.34  264.47   15.45  100.09  266.45    0.01    0.28    0.01    3.34    2.85   15.45
   5199  71   Rocky Fo   .114E-01   35.00   72.00    0.13  200.83    0.00    0.00    0.27  264.47   22.31   72.67  356.42    0.00    0.14    0.00    6.34    5.78   22.31
   5200  71   Rocky Fo   .335E-01   35.00   72.00    0.14  370.77    0.00    0.00    0.81  264.47   41.20   62.63  529.95    0.01    3.51    0.01   11.14    6.62   41.20
   5201  71   Rocky Fo   .221E-01   35.00   72.00    0.16  205.98    0.00    0.00    0.41  264.47   22.89   91.04  329.96    0.02    0.43    0.02    3.11    2.63   22.89
   5202  71   Rocky Fo   .762E-02   35.00   72.00    0.12  205.98    0.00    0.00    0.27  264.47   22.89   63.14  371.31    0.00    0.22    0.00    6.65    6.04   22.89
   5203  71   Rocky Fo   .777E-01   35.00   72.00    0.19  205.98    0.00    0.00    0.27  264.47   22.89   66.32  369.67    0.00    0.41    0.00    6.62    6.00   20.94
   5204  71   Rocky Fo   .686E-01   35.00   72.00    0.18  200.83    0.00    0.00    0.41  264.47   22.31   84.55  341.56    0.00    0.64    0.00    5.03    4.11   20.87
   5205  71   Rocky Fo   .861E-01   35.00   72.00    0.16  205.98    0.00    0.00    0.27  264.47   22.89   66.19  369.44    0.00    0.31    0.00    6.63    6.02   21.04
   5206  71   Rocky Fo   .297E-01   35.00   72.00    0.13  355.32    0.00    0.00    0.75  264.47   39.48   54.12  528.42    0.02    0.62    0.01   14.33    8.60   39.48
   5207  71   Rocky Fo   .579E-01   35.00   72.00    0.18  370.77    0.00    0.00    0.61  264.47   41.20   53.91  546.79    0.01    0.88    0.00   14.03    9.88   38.69
   5208  71   Rocky Fo   .434E-01   35.00   72.00    0.16  386.22    0.00    0.00    0.61  264.47   42.91   57.52  556.48    0.02    0.83    0.01   13.88    9.75   42.91
   5209  71   Rocky Fo   .396E-01   35.00   72.00    0.24  288.38    0.00    0.00    0.54  264.47   32.04   73.91  442.73    0.02    0.71    0.02   10.92    7.33   32.04
   5210  71   Rocky Fo   .160E-01   35.00   72.00    0.19  298.68    0.00    0.00    0.68  264.47   33.19   88.75  437.36    0.03    0.88    0.03   10.41    6.48   33.19
   5211  71   Rocky Fo   .709E-01   35.00   72.00    0.15  298.68    0.00    0.00    0.68  264.47   33.19   88.98  438.91    0.00    0.76    0.00   10.43    6.50   31.32
   5212  71   Rocky Fo   .564E-01   35.00   72.00    0.18  139.04    0.00    0.00    0.41  264.47   15.45  100.76  266.59    0.00    0.33    0.00    3.79    2.85   14.30
   5213  71   Rocky Fo   .104E+00   35.00   72.00    0.13  288.38    0.00    0.00    0.54  264.47   32.04   71.09  446.61    0.00    0.46    0.00   10.97    7.42   29.39
   5214  71   Rocky Fo   .732E-01   35.00   72.00    0.15  288.38    0.00    0.00    0.54  264.47   32.04   71.41  445.85    0.00    0.53    0.00   11.01    7.43   30.52
   5215  71   Rocky Fo   .785E-01   35.00   72.00    0.15  298.68    0.00    0.00    0.68  264.47   33.19   88.62  439.18    0.00    0.74    0.00   10.43    6.50   31.42
   5216  71   Manvel     .518E-01   35.00   23.00    0.15  278.01    0.00    0.00    0.75  264.47   30.89   94.05  410.35    0.02    2.68    0.01    5.88    3.76   30.86
   5217  71   Rocky Fo   .114E+00   35.00   72.00    0.19  303.82    0.00    0.00    0.81  264.47   33.76   83.77  448.08    0.00    0.84    0.00   10.37    6.34   30.45
   5218  71   Manvel     .305E-01   35.00   23.00    0.19  126.67    0.00    0.00    0.34  264.47   14.07   88.88  267.37    0.01    1.45    0.01    2.52    2.09   14.07
   5219  71   Manvel     .194E+00   35.00   23.00    0.14  319.13    0.00    0.00    0.75  264.47   35.46  134.53  410.26    0.00    2.10    0.00    5.39    3.66   32.75
   5220  71   Rocky Fo   .196E+00   35.00   72.00    0.21  164.79    0.00    0.00    0.41  264.47   18.31   92.52  303.18    0.01    0.46    0.01    3.49    2.74   16.21
   5221  71   Rocky Fo   .930E-01   35.00   72.00    0.22  298.68    0.00    0.00    0.61  264.47   33.19   77.31  453.84    0.00    0.78    0.00    9.40    6.88   30.73
   5222  71   Rocky Fo   .465E-01   35.00   72.00    0.27  205.98    0.00    0.00    0.61  264.47   22.89   84.63  352.68    0.00    1.41    0.00    7.01    3.51   22.25
   5223  71   Rocky Fo   .130E-01   35.00   72.00    0.16  169.94    0.00    0.00    0.54  264.47   18.88   84.88  315.57    0.00    0.68    0.00    5.51    2.86   18.88
   5224  71   Rocky Fo   .135E+00   35.00   72.00    0.14  267.78    0.00    0.00    0.61  264.47   29.75   89.35  410.08    0.00    0.54    0.00    8.19    6.14   27.00
   5225  71   Rocky Fo   .556E-01   35.00   72.00    0.13  123.59    0.00    0.00    0.21  264.47   13.73   81.62  269.84    0.00    0.06    0.00    3.89    3.75   13.73
   5226  71   Rocky Fo   .587E-01   35.00   72.00    0.16  133.89    0.00    0.00    0.34  264.47   14.88   96.49  265.18    0.00    0.09    0.00    3.23    2.68   14.34
   5227  71   Rocky Fo   .739E-01   35.00   72.00    0.14  406.82    0.00    0.00    0.75  264.47   45.20   94.02  540.59    0.00    1.32    0.00   12.18    7.94   41.93
   5228  72   Manvel     .152E+00   98.00   16.00    2.74    0.00   52.68    0.00    0.21  264.47   35.41   92.32  131.01    5.40    2.62    1.08    0.36    0.00   35.41
   5229  72   Rocky Fo   .434E-01   98.00   51.00    1.12    0.00   29.39    0.00    0.21  264.47    3.79  146.12  105.15    0.02    0.04    0.01    0.32    0.00    3.80
   5230  72   Manvel     .763E-03   98.00   16.00    1.70    0.00   52.65    0.00    0.21  264.47   35.52   92.16  131.06    1.65    2.40    0.48    0.36    0.00   35.52
   5231  72   Rocky Fo   .168E-01   98.00   51.00    1.49    0.00   29.40    0.00    0.21  264.47    3.79  146.05  105.22    0.02    0.05    0.01    0.32    0.00    3.79
   5232  72   Manvel     .616E+00   98.00   16.00    2.13    0.00    0.00    0.00    0.21  264.47   45.17   82.74  131.59   41.73    0.04    2.27    0.02    0.00   45.17
   5233  72   Rocky Fo   .220E+00   98.00   51.00    2.13    0.00    0.00    0.00    0.21  264.47    8.00  131.37  116.48    2.81    0.14    0.49    0.06    0.00    8.00
   5234  72   Manvel     .125E+02   98.00   16.00    1.91    0.00    0.00    0.00    0.21  264.47   43.99   83.71  131.72    8.16    0.04    1.67    0.03    0.00   43.99
   5235  72   Rocky Fo   .930E+00   98.00   51.00    1.59    0.00    0.00    0.00    0.21  264.47    7.41  132.51  115.87    1.95    0.10    0.39    0.06    0.00    7.41
   5236  72   Manvel     .473E-01   98.00   16.00    1.80    0.00   45.27    0.00    0.21  264.47   41.02   86.80  131.22   17.77    3.15    3.60    0.00    0.00   41.02
   5237  72   Rocky Fo   .953E-01   98.00   51.00    2.37    0.00   21.63    0.00    0.21  264.47    7.94  130.77  117.17    4.16    0.27    1.16    0.00    0.00    7.94
   5238  72   Manvel     .983E-01   98.00   16.00    1.30    0.00    0.00    0.00    0.21  264.47   45.46   83.64  130.27   26.12    0.04    1.91    0.02    0.00   45.46
   5239  72   Rocky Fo   .541E-01   98.00   51.00    2.02    0.00    0.00    0.00    0.21  264.47    7.92  132.75  115.12    4.16    0.05    0.70    0.13    0.00    7.92
   5240  72   Manvel     .648E-01   98.00   16.00    1.39    0.00    0.00    0.00    0.21  264.47   45.46   83.64  130.26   26.83    0.04    1.93    0.02    0.00   45.46
   5241  72   Rocky Fo   .663E-01   98.00   51.00    1.80    0.00    0.00    0.00    0.21  264.47    7.91  132.75  115.11    3.78    0.05    0.65    0.13    0.00    7.91
   5242  72   Manvel     .195E+00   98.00   16.00    1.12  295.24    0.00    0.00    0.68  264.47   91.46   90.70  400.77   24.05    4.93    2.84    6.10    4.44   91.46
   5243  72   Rocky Fo   .152E+00   98.00   51.00    1.70  342.88    0.00    0.00    0.81  264.47   58.99  109.55  464.50   13.10    1.81    2.92   12.76    6.51   58.99
   5244  72   Rocky Fo   .686E-01   98.00   51.00    1.49  353.82    0.00    0.00    0.95  264.47   68.00  109.58  467.37   12.78    1.79    2.20   12.78    4.71   68.00
   5245  72   Rocky Fo   .145E-01   98.00   51.00    3.82  299.10    0.00    0.00    0.75  264.47   58.96  105.81  423.25   20.76    2.19    3.87    9.76    4.30   58.96
   5246  72   Rocky Fo   .579E-01   98.00   51.00    0.79  280.87    0.00    0.00    0.75  264.47   57.79   93.89  417.44    6.27    1.04    1.27   10.61    5.21   57.79
   5247  72   Rocky Fo   .465E-01   98.00   51.00    1.39  280.87    0.00    0.00    0.81  264.47   53.85  112.36  401.18   10.19    1.17    1.75   10.32    4.11   53.85
   5248  72   Rocky Fo   .419E-01   98.00   51.00    2.13  280.87    0.00    0.00    0.75  264.47   55.39  107.50  395.12   16.48    0.77    2.13    8.91    4.47   55.39
   5249  72   Rocky Fo   .329E+00   98.00   51.00    1.39  302.75    0.00    0.00    0.88  264.47   54.42  133.95  399.09   12.15    2.18    1.74    8.22    2.79   54.42
   5250  72   Manvel     .126E+00   98.00   16.00    2.25  226.58    0.00    0.00    0.68  264.47   80.08   75.96  352.43   32.38    2.91    3.21    6.14    3.77   80.08
   5251  72   Rocky Fo   .366E-01   98.00   51.00    4.58  412.18    0.00    0.00    0.61  264.47   70.49   89.19  544.44   22.82    1.25    3.76   11.75    7.59   70.49
   5252  72   Rocky Fo   .114E-01   98.00   51.00    0.64  277.22    0.00    0.00    0.75  264.47   55.47   93.43  413.52    4.25    1.71    1.47   11.00    5.26   55.47
   5253  72   Rocky Fo   .203E+00   98.00   51.00    2.13  342.88    0.00    0.00    0.81  264.47   58.69  112.10  461.47   16.91    1.49    2.32   10.88    4.69   58.69
   5254  72   Rocky Fo   .503E-01   98.00   51.00    2.25  419.48    0.00    0.00    0.48  264.47   70.18   61.79  588.44    8.96    0.70    1.36   10.76    8.39   70.18
   5255  72   Rocky Fo   .450E-01   98.00   51.00    2.02  441.36    0.00    0.00    0.61  264.47   75.93  123.55  534.50   10.23    0.99    1.65    9.31    6.16   75.93
   5256  72   Rocky Fo   .296E+00   98.00   51.00    2.13  331.93    0.00    0.00    0.68  264.47   65.06   83.99  473.52   18.90    1.72    3.91   12.76    7.11   65.06
   5257  72   Rocky Fo   .877E-01   98.00   51.00    1.03  277.22    0.00    0.00    0.68  264.47   52.25  105.62  404.28    6.08    0.70    1.53    9.75    5.46   52.25
   5258  72   Rocky Fo   .663E-01   98.00   51.00    2.25  317.34    0.00    0.00    0.41  264.47   60.36   71.69  474.56   12.35    0.58    1.63    7.61    6.46   60.36
   5259  72   Manvel     .140E+00   98.00   16.00    1.91  279.22    0.00    0.00    0.54  264.47   88.79   79.58  397.77   34.60    2.80    2.65    6.35    3.95   88.79
   5260  72   Manvel     .183E-01   98.00   16.00    2.49  200.26    0.00    0.00    0.68  264.47   77.59   84.29  316.06   48.53    2.28    3.01    4.06    2.64   77.59
   5261  72   Manvel     .286E+00   98.00   16.00    1.30  314.70    0.00    0.00    0.68  264.47   92.71   89.82  423.02   26.06    3.71    3.04    5.41    3.96   92.71
   5262  72   Manvel     .373E-01   98.00   16.00    3.68  351.32    0.00    0.00    0.75  264.47   97.62   76.82  470.44   30.72    3.84    3.56    9.16    6.26   97.62
   5263  72   Manvel     .701E-01   98.00   16.00    2.02  295.24    0.00    0.00    0.54  264.47   90.29   74.29  419.35   25.49    3.09    2.58    7.03    5.52   90.29
   5264  72   Rocky Fo   .427E-01   98.00   51.00    1.21  313.70    0.00    0.00    0.81  264.47   62.36   95.13  447.08    5.99    1.12    1.25    9.18    4.73   62.36
   5265  72   Rocky Fo   .425E+00   98.00   51.00    1.59  357.47    0.00    0.00    0.95  264.47   65.98  108.26  479.24   13.80    1.60    2.02   12.48    4.85   65.98
   5266  72   Rocky Fo   .350E+00   98.00   51.00    1.21  346.52    0.00    0.00    0.54  264.47   62.41   83.55  494.42   12.43    0.98    1.57    9.43    6.47   62.41
   5267  72   Rocky Fo   .136E+00   98.00   51.00    2.02  335.58    0.00    0.00    0.54  264.47   62.37   75.41  489.06    9.71    1.04    1.37    9.96    7.19   62.37
   5268  72   Rocky Fo   .473E-01   98.00   51.00    2.02  277.22    0.00    0.00    0.75  264.47   54.00   99.59  401.46   13.77    0.83    1.85    9.69    5.05   54.00
   5269  72   Rocky Fo   .960E-01   98.00   51.00    1.12  320.99    0.00    0.00    0.68  264.47   55.47   97.48  453.37    6.84    0.64    1.09    7.52    4.94   55.47
   5270  72   Rocky Fo   .187E+00   98.00   51.00    0.87  324.64    0.00    0.00    0.68  264.47   63.83   79.06  472.27    5.43    1.09    1.49   11.57    6.29   63.83



                AVE MONTHLY BASIN VALUES
                   SNOW                      WATER               SED
  MON     RAIN     FALL   SURF Q    LAT Q    YIELD       ET    YIELD      PET
          (MM)     (MM)     (MM)     (MM)     (MM)     (MM)   (T/HA)     (MM)
    1     6.43     3.40     0.08     0.01     3.32     3.33     0.00    40.56
    2     5.91     2.53     0.02     0.00     2.86     3.82     0.00    51.54
    3    19.66     2.82     0.53     0.04     3.63     7.14     0.04    95.76
    4    33.90     0.30     1.39     0.10     6.75    15.38     0.14   139.42
    5    29.71     0.00     2.74     0.28    12.68    29.87     0.10   173.52
    6    34.82     0.00     3.65     0.22    12.91    41.30     0.19   198.92
    7    42.03     0.00     3.43     0.29    13.05    41.00     0.28   198.96
    8    46.52     0.00     3.36     0.31    13.41    35.82     0.24   169.77
    9    17.83     0.00     1.05     0.09    10.73    17.47     0.07   128.95
   10    21.80     0.35     1.38     0.13     8.21    11.00     0.06    86.23
   11     5.51     1.61     0.24     0.03     6.29     7.82     0.00    56.33
   12     6.37     3.71     0.15     0.02     4.38     3.69     0.00    36.95

     AVE ANNUAL BASIN STRESS DAYS
               WATER STRESS DAYS =    83.22
               TEMPERATURE STRESS DAYS =    85.63
               NITROGEN STRESS DAYS =    53.88
               PHOSPHORUS STRESS DAYS =     3.34
               AERATION STRESS DAYS =     0.02
1
    SWAT Jan 26 2015    VER 2012/Rev 636                                            

    General Input/Output section (file.cio):                                        
    1/26/2018 12:00:00 AM ARCGIS-SWAT interface AV                                  
                                                                                    
         AVE ANNUAL BASIN VALUES

              PRECIP =    275.9 MM
              SNOW FALL =   14.11 MM
              SNOW MELT =    14.11 MM
              SUBLIMATION =     0.00 MM
              SURFACE RUNOFF Q =    18.51 MM
              LATERAL SOIL Q =    1.56 MM
              TILE Q =     0.00 MM
              GROUNDWATER (SHAL AQ) Q =    74.61 MM
              GROUNDWATER (DEEP AQ) Q =     6.46 MM
              REVAP (SHAL AQ => SOIL/PLANTS) =   23.70 MM
              DEEP AQ RECHARGE =     6.60 MM
              TOTAL AQ RECHARGE =  132.05 MM
              TOTAL WATER YLD =    99.86 MM
              PERCOLATION OUT OF SOIL =  131.41 MM
              ET =    222.8 MM
              PET =   1400.4MM
              TRANSMISSION LOSSES =     1.28 MM
              SEPTIC INFLOW =       0.00 MM
              TOTAL SEDIMENT LOADING =     1.161 T/HA
              TILE FROM IMPOUNDED WATER =     0.000 (MM)
              EVAPORATION FROM IMPOUNDED WATER =     0.000 (MM)
              SEEPAGE INTO SOIL FROM IMPOUNDED WATER =    0.000 (MM)
              OVERFLOW FROM IMPOUNDED WATER =    0.000 (MM)
1
    SWAT Jan 26 2015    VER 2012/Rev 636                                            

    General Input/Output section (file.cio):                                        
    1/26/2018 12:00:00 AM ARCGIS-SWAT interface AV                                  
                                                                                    
              AVE ANNUAL BASIN VALUES


              NUTRIENTS
                   ORGANIC N =     0.170 (KG/HA)
                   ORGANIC P =     0.023 (KG/HA)
                   NO3 YIELD (SQ) =     0.695 (KG/HA)
                   NO3 YIELD (LAT) =    0.067 (KG/HA)
                   NO3 YIELD (TILE) =    0.000 (KG/HA)
                   SOLP YIELD (TILE) =    0.000(KG/HA)
                   SOLP YIELD (SURF INLET RISER) =    0.000 (KG/HA)
                   SOL P YIELD =    0.144 (KG/HA)
                   NO3 LEACHED =    39.046 (KG/HA)
                   P LEACHED =     0.449 (KG/HA)
                   N UPTAKE =    42.103 (KG/HA)
                   P UPTAKE =    6.321 (KG/HA)
                   NO3 YIELD (GWQ) =     1.703 (KG/HA)
                   ACTIVE TO SOLUTION P FLOW =        90.145 (KG/HA)
                   ACTIVE TO STABLE P FLOW =        76.341 (KG/HA)
                   N FERTILIZER APPLIED =    44.112 (KG/HA)
                   P FERTILIZER APPLIED =   121.297 (KG/HA)
                   N FIXATION =    14.694 (KG/HA)
                   DENITRIFICATION =     0.460 (KG/HA)
                   HUMUS MIN ON ACTIVE ORG N =     0.943 (KG/HA)
                   ACTIVE TO STABLE ORG N =     0.584 (KG/HA)
                   HUMUS MIN ON ACTIVE ORG P =    0.169 (KG/HA)
                   MIN FROM FRESH ORG N =    9.305 (KG/HA)
                   MIN FROM FRESH ORG P =    1.883 (KG/HA)
                   NO3 IN RAINFALL =     0.000 (KG/HA)
                   INITIAL NO3 IN SOIL =     192.097 (KG/HA)
                   FINAL NO3 IN SOIL =         7.667 (KG/HA)
                   INITIAL ORG N IN SOIL =     314.140 (KG/HA)
                   FINAL ORG N IN SOIL =       332.938 (KG/HA)
                   INITIAL MIN P IN SOIL =     479.080 (KG/HA)
                   FINAL MIN P IN SOIL =      1932.286 (KG/HA)
                   INITIAL ORG P IN SOIL =      38.482 (KG/HA)
                   FINAL ORG P IN SOIL =      42.914 (KG/HA)
                   NO3 IN FERT =    44.112 (KG/HA)
                   AMMONIA IN FERT =     0.000 (KG/HA)
                   ORG N IN FERT =     0.000 (KG/HA)
                   MINERAL P IN FERT =   121.297 (KG/HA)
                   ORG P IN FERT =     0.000 (KG/HA)
                   N REMOVED IN YIELD =    29.388 (KG/HA)
                   P REMOVED IN YIELD =     3.821 (KG/HA)
                   AMMONIA VOLATILIZATION =     0.000 (KG/HA)
                   AMMONIA NITRIFICATION =      0.000 (KG/HA)
                   NO3 EVAP-LAYER 2 TO 1 =   29.169

                   DIE-GRO P Q =       0.0 (No/HA)
                   DIE-GRO LP Q =       0.0 (No/HA)
                   DIE-GRO P SED =      0.0 (No/HA)
                   DIE-GRO LP SED =      0.0 (No/HA)
                   BACT P RUNOFF =      0.0 (No/HA)
                   BACT LP RUNOFF =      0.0 (No/HA)
                   BACT P SEDIMENT =      0.0 (No/HA)
                   BACT LP SEDIMENT =      0.0 (No/HA)
                   BACT P INCORP =      0.0 (No/HA)
                   BACT LP INCORP =      0.0 (No/HA)

                   NITRATE SEPTIC =         0.00 (kg/ha)
                   AMMONIA SEPTIC =         0.00 (kg/ha)
                   ORG N SEPTIC =         0.00 (kg/ha)
                   FRESH ORGN SEPTIC =         0.00 (kg/ha)
                   ORG P SEPTIC =         0.00 (kg/ha)
                   FRESH ORGP SEPTIC =         0.00 (kg/ha)
                   SOL P SEPTIC =         0.00 (kg/ha)
                   BOD SEPTIC =         0.00 (kg/ha)
